read_data       lammps.xyz
  orthogonal box = (-23.5 -23.5 -23.5) to (23.5 23.5 23.5)
  reading atoms ...
  408 atoms
change_box 	all triclinic
  triclinic box = (-23.5 -23.5 -23.5) to (23.5 23.5 23.5) with tilt (0 0 0)

include potential.mod
# NOTE: This script can be modified for different pair styles
# See in.elastic for more info.

# Choose potential
pair_style     rebo
pair_coeff     * * CH.airebo C
Reading potential file CH.airebo with DATE: 2011-10-25

#pair_style     lcbop
#pair_coeff     C.lcbop
#pair_style     tersoff
#pair_coeff     BNC.tersoff

# Setup neighbor style
neighbor 1.0 nsq
neigh_modify once no every 1 delay 0 check yes

# Setup minimization style
min_style	     cg
min_modify	     dmax 0.01 line quadratic

# Setup output
thermo		500
thermo_style custom step temp pe press pxx pyy pzz pxy pxz pyz lx ly lz vol
thermo_modify norm no

# Output
dump            1 all xtc 100 traj.xtc
dump            2 all xyz 2000 relaxed.xyz
#dump            4 all atom 10 dump.atom

# Compute initial state
fix 3 all box/relax  aniso 0.0
minimize 0 1e-10 10000000 10000000
  update every 1 steps, delay 0 steps, check yes
Step Temp PotEng Press Pxx Pyy Pzz Pxy Pxz Pyz Lx Ly Lz Volume
0            0   -2687.4453   -591.73234   -591.73234   -591.73234   -591.73234    23.802792    23.802792    23.802792           47           47           47       103823
Averages over the last 1260 of 2520 rows, steps 630000 to 1259352:
Temp PotEng Press Pxx Pyy Pzz Pxy Pxz Pyz Lx Ly Lz Volume
0 -2737 3.57576e-08 -5.69261e-09 7.93238e-08 3.36415e-08 5.03833e-09 2.32193e-08 -1.71723e-08 48.2203 48.2189 48.22 112118
Loop time of 1696.11 on 1 procs for 1259352 steps with 408 atoms

Minimization stats:
  Stopping criterion = force tolerance
  Energy initial, next-to-last, final =
  Force two-norm initial, final = 76.9529 8.13781e-11
  Force max component initial, final = 38.345 1.29063e-11
  Final line search alpha, max atom move = 1 1.29063e-11
  Iterations, force evaluations = 1259352 2509004

#dump rel all xyz 10 relaxed-*.xyz
#dump 3 all xyz 10 relaxed.xyz
#dump 3 all atom 10 dump.atom

variable tmp equal pxx
variable pxx0 equal -1.89221052768359e-10
variable tmp equal pyy
variable pyy0 equal 1.18113231851786e-10
variable tmp equal pzz
variable pzz0 equal 8.05571333078966e-11
variable tmp equal pyz
variable pyz0 equal 4.29883426049859e-10
variable tmp equal pxz
variable pxz0 equal 1.16987754650576e-09
variable tmp equal pxy
variable pxy0 equal 1.37788934070509e-09

variable tmp equal lx
variable lx0 equal 48.2203389273796
variable tmp equal ly
variable ly0 equal 48.2189226560944
variable tmp equal lz
variable lz0 equal 48.2200113244273

# These formulas define the derivatives w.r.t. strain components
# Constants uses $, variables use v_
variable d1 equal -(v_pxx1--1.89221052768359e-10)/(v_delta/v_len0)*0.0001
variable d2 equal -(v_pyy1-1.18113231851786e-10)/(v_delta/v_len0)*0.0001
variable d3 equal -(v_pzz1-8.05571333078966e-11)/(v_delta/v_len0)*0.0001
variable d4 equal -(v_pyz1-4.29883426049859e-10)/(v_delta/v_len0)*0.0001
variable d5 equal -(v_pxz1-1.16987754650576e-09)/(v_delta/v_len0)*0.0001
variable d6 equal -(v_pxy1-1.37788934070509e-09)/(v_delta/v_len0)*0.0001

displace_atoms all random 1e-05 1e-05 1e-05 87287 units box

# Write restart
unfix 3
write_restart restart.equil

# uxx Perturbation

variable dir equal 1
include displace.mod
# NOTE: This script should not need to be
# modified. See in.elastic for more info.
#
# Find which reference length to use

variable len0 equal 48.2203389273796

# Reset box and simulation parameters

clear
box tilt large
read_restart restart.equil
  triclinic box = (-24.1102 -24.1095 -24.11) to (24.1102 24.1095 24.11) with tilt (0 0 0)
  408 atoms
include potential.mod
# NOTE: This script can be modified for different pair styles
# See in.elastic for more info.

# Choose potential
pair_style     rebo
pair_coeff     * * CH.airebo C
Reading potential file CH.airebo with DATE: 2011-10-25

#pair_style     lcbop
#pair_coeff     C.lcbop
#pair_style     tersoff
#pair_coeff     BNC.tersoff

# Setup neighbor style
neighbor 1.0 nsq
neigh_modify once no every 1 delay 0 check yes

# Setup minimization style
min_style	     cg
min_modify	     dmax 0.01 line quadratic

# Setup output
thermo		500
thermo_style custom step temp pe press pxx pyy pzz pxy pxz pyz lx ly lz vol
thermo_modify norm no

# Output
dump            1 all xtc 100 traj.xtc
dump            2 all xyz 2000 relaxed.xyz
#dump            4 all atom 10 dump.atom

# Negative deformation

variable delta equal -1.0e-5*48.2203389273796
variable deltaxy equal -1.0e-5*xy
variable deltaxz equal -1.0e-5*xz
variable deltayz equal -1.0e-5*yz
change_box all x delta 0 -0.000482203389273796 xy delta -0 xz delta -0 remap units box
  triclinic box = (-24.1102 -24.1095 -24.11) to (24.1097 24.1095 24.11) with tilt (0 0 0)
  triclinic box = (-24.1102 -24.1095 -24.11) to (24.1097 24.1095 24.11) with tilt (0 0 0)
  triclinic box = (-24.1102 -24.1095 -24.11) to (24.1097 24.1095 24.11) with tilt (0 0 0)

# Relax atoms positions

minimize 0 1e-10 10000000 10000000
  update every 1 steps, delay 0 steps, check yes
Step Temp PotEng Press Pxx Pyy Pzz Pxy Pxz Pyz Lx Ly Lz Volume
1259352            0   -2736.9985   0.78498755    1.5039642   0.44223317   0.40876525 -0.056363861 -0.014585982  -0.02918609    48.219857    48.218923    48.220011    112116.81
Loop time of 1.641 on 1 procs for 1261 steps with 408 atoms

Minimization stats:
  Stopping criterion = force tolerance
  Energy initial, next-to-last, final =
  Force two-norm initial, final = 0.0152549 9.95749e-11
  Force max component initial, final = 0.00143425 1.01771e-11
  Final line search alpha, max atom move = 1 1.01771e-11
  Iterations, force evaluations = 1261 2522

# Obtain new stress tensor

variable tmp equal pxx
variable pxx1 equal -3.70551922752678e-09
variable tmp equal pyy
variable pyy1 equal -2.0741860612729e-09
variable tmp equal pzz
variable pzz1 equal -5.05787594872905e-09
variable tmp equal pxy
variable pxy1 equal -2.11036224928511e-09
variable tmp equal pxz
variable pxz1 equal 2.04494938060063e-09
variable tmp equal pyz
variable pyz1 equal 2.32221236704978e-09

# Compute elastic constant from pressure tensor

variable C1neg equal -3.51629817475842e-08
variable C2neg equal -2.19229929312469e-08
variable C3neg equal -5.13843308203695e-08
variable C4neg equal 1.89232894099992e-08
variable C5neg equal 8.7507183409487e-09
variable C6neg equal -3.4882515899902e-08

# Reset box and simulation parameters

clear
box tilt large
read_restart restart.equil
  triclinic box = (-24.1102 -24.1095 -24.11) to (24.1102 24.1095 24.11) with tilt (0 0 0)
  408 atoms
include potential.mod
# NOTE: This script can be modified for different pair styles
# See in.elastic for more info.

# Choose potential
pair_style     rebo
pair_coeff     * * CH.airebo C
Reading potential file CH.airebo with DATE: 2011-10-25

#pair_style     lcbop
#pair_coeff     C.lcbop
#pair_style     tersoff
#pair_coeff     BNC.tersoff

# Setup neighbor style
neighbor 1.0 nsq
neigh_modify once no every 1 delay 0 check yes

# Setup minimization style
min_style	     cg
min_modify	     dmax 0.01 line quadratic

# Setup output
thermo		500
thermo_style custom step temp pe press pxx pyy pzz pxy pxz pyz lx ly lz vol
thermo_modify norm no

# Output
dump            1 all xtc 100 traj.xtc
dump            2 all xyz 2000 relaxed.xyz
#dump            4 all atom 10 dump.atom

# Positive deformation

variable delta equal 1.0e-5*48.2203389273796
variable deltaxy equal 1.0e-5*xy
variable deltaxz equal 1.0e-5*xz
variable deltayz equal 1.0e-5*yz
change_box all x delta 0 0.000482203389273796 xy delta 0 xz delta 0 remap units box
  triclinic box = (-24.1102 -24.1095 -24.11) to (24.1107 24.1095 24.11) with tilt (0 0 0)
  triclinic box = (-24.1102 -24.1095 -24.11) to (24.1107 24.1095 24.11) with tilt (0 0 0)
  triclinic box = (-24.1102 -24.1095 -24.11) to (24.1107 24.1095 24.11) with tilt (0 0 0)

# Relax atoms positions

minimize 0 1e-10 10000000 10000000
  update every 1 steps, delay 0 steps, check yes
Step Temp PotEng Press Pxx Pyy Pzz Pxy Pxz Pyz Lx Ly Lz Volume
1259352            0   -2736.9985  -0.76377122   -1.3433045  -0.45651309  -0.49149608 -0.054289513 -0.010389963 -0.046173666    48.220821    48.218923    48.220011    112119.05
Loop time of 2.18805 on 1 procs for 1688 steps with 408 atoms

Minimization stats:
  Stopping criterion = force tolerance
  Energy initial, next-to-last, final =
  Force two-norm initial, final = 0.0141666 9.78339e-11
  Force max component initial, final = 0.00123943 1.43382e-11
  Final line search alpha, max atom move = 1 1.43382e-11
  Iterations, force evaluations = 1688 3376

# Obtain new stress tensor

variable tmp equal pe
variable e1 equal -2736.99853626144
variable tmp equal press
variable p1 equal 7.60654637195725e-11
variable tmp equal pxx
variable pxx1 equal 1.12445058398212e-09
variable tmp equal pyy
variable pyy1 equal -4.89347643667507e-10
variable tmp equal pzz
variable pzz1 equal -4.06906549155899e-10
variable tmp equal pxy
variable pxy1 equal 6.18165423475922e-10
variable tmp equal pxz
variable pxz1 equal 1.19448521711507e-09
variable tmp equal pyz
variable pyz1 equal -6.71230809689921e-10

# Compute elastic constant from pressure tensor

variable C1pos equal -1.31367163675048e-08
variable C2pos equal 6.07460875519293e-09
variable C3pos equal 4.87463682463796e-09
variable C4pos equal 1.10111423573978e-08
variable C5pos equal -2.46076706093101e-10
variable C6pos equal 7.59723917229168e-09

# Combine positive and negative

variable C11 equal 0.5*(-3.51629817475842e-08+-1.31367163675048e-08)
variable C21 equal 0.5*(-2.19229929312469e-08+6.07460875519293e-09)
variable C31 equal 0.5*(-5.13843308203695e-08+4.87463682463796e-09)
variable C41 equal 0.5*(1.89232894099992e-08+1.10111423573978e-08)
variable C51 equal 0.5*(8.7507183409487e-09+-2.46076706093101e-10)
variable C61 equal 0.5*(-3.4882515899902e-08+7.59723917229168e-09)

# Delete dir to make sure it is not reused

variable dir delete

# uyy Perturbation

variable dir equal 2
include displace.mod
# NOTE: This script should not need to be
# modified. See in.elastic for more info.
#
# Find which reference length to use

variable len0 equal 48.2189226560944

# Reset box and simulation parameters

clear
box tilt large
read_restart restart.equil
  triclinic box = (-24.1102 -24.1095 -24.11) to (24.1102 24.1095 24.11) with tilt (0 0 0)
  408 atoms
include potential.mod
# NOTE: This script can be modified for different pair styles
# See in.elastic for more info.

# Choose potential
pair_style     rebo
pair_coeff     * * CH.airebo C
Reading potential file CH.airebo with DATE: 2011-10-25

#pair_style     lcbop
#pair_coeff     C.lcbop
#pair_style     tersoff
#pair_coeff     BNC.tersoff

# Setup neighbor style
neighbor 1.0 nsq
neigh_modify once no every 1 delay 0 check yes

# Setup minimization style
min_style	     cg
min_modify	     dmax 0.01 line quadratic

# Setup output
thermo		500
thermo_style custom step temp pe press pxx pyy pzz pxy pxz pyz lx ly lz vol
thermo_modify norm no

# Output
dump            1 all xtc 100 traj.xtc
dump            2 all xyz 2000 relaxed.xyz
#dump            4 all atom 10 dump.atom

# Negative deformation

variable delta equal -1.0e-5*48.2189226560944
variable deltaxy equal -1.0e-5*xy
variable deltaxz equal -1.0e-5*xz
variable deltayz equal -1.0e-5*yz
change_box all y delta 0 -0.000482189226560944 yz delta -0 remap units box
  triclinic box = (-24.1102 -24.1095 -24.11) to (24.1102 24.109 24.11) with tilt (0 0 0)
  triclinic box = (-24.1102 -24.1095 -24.11) to (24.1102 24.109 24.11) with tilt (0 0 0)

# Relax atoms positions

minimize 0 1e-10 10000000 10000000
  update every 1 steps, delay 0 steps, check yes
Step Temp PotEng Press Pxx Pyy Pzz Pxy Pxz Pyz Lx Ly Lz Volume
1259352            0   -2736.9985   0.78427095   0.52968542     1.413192   0.40993539 -0.056340384 -0.0039338673 -0.039483911    48.220339     48.21844    48.220011    112116.81
Loop time of 1.06215 on 1 procs for 808 steps with 408 atoms

Minimization stats:
  Stopping criterion = force tolerance
  Energy initial, next-to-last, final =
  Force two-norm initial, final = 0.0145401 9.66033e-11
  Force max component initial, final = 0.00137817 1.09492e-11
  Final line search alpha, max atom move = 1 1.09492e-11
  Iterations, force evaluations = 808 1616

# Obtain new stress tensor

variable tmp equal pxx
variable pxx1 equal -6.21836338331416e-10
variable tmp equal pyy
variable pyy1 equal -9.29716291549253e-10
variable tmp equal pzz
variable pzz1 equal 1.64580871837314e-10
variable tmp equal pxy
variable pxy1 equal -9.39356082723806e-11
variable tmp equal pxz
variable pxz1 equal 1.52012335681156e-09
variable tmp equal pyz
variable pyz1 equal -1.33098925781536e-09

# Compute elastic constant from pressure tensor

variable C1neg equal -4.32615285563057e-09
variable C2neg equal -1.04782952340104e-08
variable C3neg equal 8.40237385294174e-10
variable C4neg equal -1.76087268386522e-08
variable C5neg equal 3.502458103058e-09
variable C6neg equal -1.47182494897747e-08

# Reset box and simulation parameters

clear
box tilt large
read_restart restart.equil
  triclinic box = (-24.1102 -24.1095 -24.11) to (24.1102 24.1095 24.11) with tilt (0 0 0)
  408 atoms
include potential.mod
# NOTE: This script can be modified for different pair styles
# See in.elastic for more info.

# Choose potential
pair_style     rebo
pair_coeff     * * CH.airebo C
Reading potential file CH.airebo with DATE: 2011-10-25

#pair_style     lcbop
#pair_coeff     C.lcbop
#pair_style     tersoff
#pair_coeff     BNC.tersoff

# Setup neighbor style
neighbor 1.0 nsq
neigh_modify once no every 1 delay 0 check yes

# Setup minimization style
min_style	     cg
min_modify	     dmax 0.01 line quadratic

# Setup output
thermo		500
thermo_style custom step temp pe press pxx pyy pzz pxy pxz pyz lx ly lz vol
thermo_modify norm no

# Output
dump            1 all xtc 100 traj.xtc
dump            2 all xyz 2000 relaxed.xyz
#dump            4 all atom 10 dump.atom

# Positive deformation

variable delta equal 1.0e-5*48.2189226560944
variable deltaxy equal 1.0e-5*xy
variable deltaxz equal 1.0e-5*xz
variable deltayz equal 1.0e-5*yz
change_box all y delta 0 0.000482189226560944 yz delta 0 remap units box
  triclinic box = (-24.1102 -24.1095 -24.11) to (24.1102 24.1099 24.11) with tilt (0 0 0)
  triclinic box = (-24.1102 -24.1095 -24.11) to (24.1102 24.1099 24.11) with tilt (0 0 0)

# Relax atoms positions

minimize 0 1e-10 10000000 10000000
  update every 1 steps, delay 0 steps, check yes
Step Temp PotEng Press Pxx Pyy Pzz Pxy Pxz Pyz Lx Ly Lz Volume
1259352            0   -2736.9985  -0.76305472  -0.36906259   -1.4274357  -0.49266588  -0.05431296 -0.021041473  -0.03587633    48.220339    48.219405    48.220011    112119.05
Loop time of 1.06174 on 1 procs for 817 steps with 408 atoms

Minimization stats:
  Stopping criterion = force tolerance
  Energy initial, next-to-last, final =
  Force two-norm initial, final = 0.0148926 9.68262e-11
  Force max component initial, final = 0.0012806 1.24693e-11
  Final line search alpha, max atom move = 1 1.24693e-11
  Iterations, force evaluations = 817 1634

# Obtain new stress tensor

variable tmp equal pe
variable e1 equal -2736.99853626144
variable tmp equal press
variable p1 equal -1.69306419879732e-10
variable tmp equal pxx
variable pxx1 equal -1.10563781940052e-09
variable tmp equal pyy
variable pyy1 equal -2.16576835770314e-10
variable tmp equal pzz
variable pzz1 equal 8.14295395531633e-10
variable tmp equal pxy
variable pxy1 equal -8.16859186016022e-10
variable tmp equal pxz
variable pxz1 equal 3.07932813629616e-09
variable tmp equal pyz
variable pyz1 equal -2.9797401064162e-09

# Compute elastic constant from pressure tensor

variable C1pos equal 9.16416766632161e-09
variable C2pos equal 3.346900676221e-09
variable C3pos equal -7.33738262223736e-09
variable C4pos equal 3.40962353246606e-08
variable C5pos equal -1.9094505897904e-08
variable C6pos equal 2.19474852672111e-08

# Combine positive and negative

variable C12 equal 0.5*(-4.32615285563057e-09+9.16416766632161e-09)
variable C22 equal 0.5*(-1.04782952340104e-08+3.346900676221e-09)
variable C32 equal 0.5*(8.40237385294174e-10+-7.33738262223736e-09)
variable C42 equal 0.5*(-1.76087268386522e-08+3.40962353246606e-08)
variable C52 equal 0.5*(3.502458103058e-09+-1.9094505897904e-08)
variable C62 equal 0.5*(-1.47182494897747e-08+2.19474852672111e-08)

# Delete dir to make sure it is not reused

variable dir delete

# uzz Perturbation

variable dir equal 3
include displace.mod
# NOTE: This script should not need to be
# modified. See in.elastic for more info.
#
# Find which reference length to use

variable len0 equal 48.2200113244273

# Reset box and simulation parameters

clear
box tilt large
read_restart restart.equil
  triclinic box = (-24.1102 -24.1095 -24.11) to (24.1102 24.1095 24.11) with tilt (0 0 0)
  408 atoms
include potential.mod
# NOTE: This script can be modified for different pair styles
# See in.elastic for more info.

# Choose potential
pair_style     rebo
pair_coeff     * * CH.airebo C
Reading potential file CH.airebo with DATE: 2011-10-25

#pair_style     lcbop
#pair_coeff     C.lcbop
#pair_style     tersoff
#pair_coeff     BNC.tersoff

# Setup neighbor style
neighbor 1.0 nsq
neigh_modify once no every 1 delay 0 check yes

# Setup minimization style
min_style	     cg
min_modify	     dmax 0.01 line quadratic

# Setup output
thermo		500
thermo_style custom step temp pe press pxx pyy pzz pxy pxz pyz lx ly lz vol
thermo_modify norm no

# Output
dump            1 all xtc 100 traj.xtc
dump            2 all xyz 2000 relaxed.xyz
#dump            4 all atom 10 dump.atom

# Negative deformation

variable delta equal -1.0e-5*48.2200113244273
variable deltaxy equal -1.0e-5*xy
variable deltaxz equal -1.0e-5*xz
variable deltayz equal -1.0e-5*yz
change_box all z delta 0 -0.000482200113244273 remap units box
  triclinic box = (-24.1102 -24.1095 -24.11) to (24.1102 24.1095 24.1095) with tilt (0 0 0)

# Relax atoms positions

minimize 0 1e-10 10000000 10000000
  update every 1 steps, delay 0 steps, check yes
Step Temp PotEng Press Pxx Pyy Pzz Pxy Pxz Pyz Lx Ly Lz Volume
1259352            0   -2736.9985   0.78428906   0.53044348   0.44416096    1.3782627 -0.047143091   -0.0128439  -0.03935725    48.220339    48.218923    48.219529    112116.81
Loop time of 1.06227 on 1 procs for 815 steps with 408 atoms

Minimization stats:
  Stopping criterion = force tolerance
  Energy initial, next-to-last, final =
  Force two-norm initial, final = 0.0144128 9.52838e-11
  Force max component initial, final = 0.0011413 9.94112e-12
  Final line search alpha, max atom move = 1 9.94112e-12
  Iterations, force evaluations = 815 1630

# Obtain new stress tensor

variable tmp equal pxx
variable pxx1 equal 1.36593429409099e-09
variable tmp equal pyy
variable pyy1 equal -1.42011448971492e-09
variable tmp equal pzz
variable pzz1 equal 2.82035285964136e-10
variable tmp equal pxy
variable pxy1 equal -1.16584357925353e-09
variable tmp equal pxz
variable pxz1 equal -3.14537057195523e-10
variable tmp equal pyz
variable pyz1 equal 2.34667674820706e-09

# Compute elastic constant from pressure tensor

variable C1neg equal 1.55515534685935e-08
variable C2neg equal -1.53822772156671e-08
variable C3neg equal 2.01478152656239e-09
variable C4neg equal 1.9167933221572e-08
variable C5neg equal -1.48441460370128e-08
variable C6neg equal -2.54373291995862e-08

# Reset box and simulation parameters

clear
box tilt large
read_restart restart.equil
  triclinic box = (-24.1102 -24.1095 -24.11) to (24.1102 24.1095 24.11) with tilt (0 0 0)
  408 atoms
include potential.mod
# NOTE: This script can be modified for different pair styles
# See in.elastic for more info.

# Choose potential
pair_style     rebo
pair_coeff     * * CH.airebo C
Reading potential file CH.airebo with DATE: 2011-10-25

#pair_style     lcbop
#pair_coeff     C.lcbop
#pair_style     tersoff
#pair_coeff     BNC.tersoff

# Setup neighbor style
neighbor 1.0 nsq
neigh_modify once no every 1 delay 0 check yes

# Setup minimization style
min_style	     cg
min_modify	     dmax 0.01 line quadratic

# Setup output
thermo		500
thermo_style custom step temp pe press pxx pyy pzz pxy pxz pyz lx ly lz vol
thermo_modify norm no

# Output
dump            1 all xtc 100 traj.xtc
dump            2 all xyz 2000 relaxed.xyz
#dump            4 all atom 10 dump.atom

# Positive deformation

variable delta equal 1.0e-5*48.2200113244273
variable deltaxy equal 1.0e-5*xy
variable deltaxz equal 1.0e-5*xz
variable deltayz equal 1.0e-5*yz
change_box all z delta 0 0.000482200113244273 remap units box
  triclinic box = (-24.1102 -24.1095 -24.11) to (24.1102 24.1095 24.1105) with tilt (0 0 0)

# Relax atoms positions

minimize 0 1e-10 10000000 10000000
  update every 1 steps, delay 0 steps, check yes
Step Temp PotEng Press Pxx Pyy Pzz Pxy Pxz Pyz Lx Ly Lz Volume
1259352            0   -2736.9985  -0.76307284  -0.36982029    -0.458441   -1.4609572 -0.063509943 -0.012131778 -0.036002933    48.220339    48.218923    48.220494    112119.05
Loop time of 1.07692 on 1 procs for 814 steps with 408 atoms

Minimization stats:
  Stopping criterion = force tolerance
  Energy initial, next-to-last, final =
  Force two-norm initial, final = 0.0150226 9.57713e-11
  Force max component initial, final = 0.00140795 1.05986e-11
  Final line search alpha, max atom move = 1 1.05986e-11
  Iterations, force evaluations = 814 1628

# Obtain new stress tensor

variable tmp equal pe
variable e1 equal -2736.99853626144
variable tmp equal press
variable p1 equal -2.93368918327665e-10
variable tmp equal pxx
variable pxx1 equal -2.18631358466652e-09
variable tmp equal pyy
variable pyy1 equal 1.71516948803978e-09
variable tmp equal pzz
variable pzz1 equal -4.0896265835625e-10
variable tmp equal pxy
variable pxy1 equal -6.70488325812016e-11
variable tmp equal pxz
variable pxz1 equal 1.07951444432877e-09
variable tmp equal pyz
variable pyz1 equal -2.3490032251443e-09

# Compute elastic constant from pressure tensor

variable C1pos equal 1.99709253189816e-08
variable C2pos equal -1.59705625618799e-08
variable C3pos equal 4.89519791664147e-09
variable C4pos equal 2.77888665119416e-08
variable C5pos equal 9.03631021769899e-10
variable C6pos equal 1.44493817328629e-08

# Combine positive and negative

variable C13 equal 0.5*(1.55515534685935e-08+1.99709253189816e-08)
variable C23 equal 0.5*(-1.53822772156671e-08+-1.59705625618799e-08)
variable C33 equal 0.5*(2.01478152656239e-09+4.89519791664147e-09)
variable C43 equal 0.5*(1.9167933221572e-08+2.77888665119416e-08)
variable C53 equal 0.5*(-1.48441460370128e-08+9.03631021769899e-10)
variable C63 equal 0.5*(-2.54373291995862e-08+1.44493817328629e-08)

# Delete dir to make sure it is not reused

variable dir delete

# uyz Perturbation

variable dir equal 4
include displace.mod
# NOTE: This script should not need to be
# modified. See in.elastic for more info.
#
# Find which reference length to use

variable len0 equal 48.2200113244273

# Reset box and simulation parameters

clear
box tilt large
read_restart restart.equil
  triclinic box = (-24.1102 -24.1095 -24.11) to (24.1102 24.1095 24.11) with tilt (0 0 0)
  408 atoms
include potential.mod
# NOTE: This script can be modified for different pair styles
# See in.elastic for more info.

# Choose potential
pair_style     rebo
pair_coeff     * * CH.airebo C
Reading potential file CH.airebo with DATE: 2011-10-25

#pair_style     lcbop
#pair_coeff     C.lcbop
#pair_style     tersoff
#pair_coeff     BNC.tersoff

# Setup neighbor style
neighbor 1.0 nsq
neigh_modify once no every 1 delay 0 check yes

# Setup minimization style
min_style	     cg
min_modify	     dmax 0.01 line quadratic

# Setup output
thermo		500
thermo_style custom step temp pe press pxx pyy pzz pxy pxz pyz lx ly lz vol
thermo_modify norm no

# Output
dump            1 all xtc 100 traj.xtc
dump            2 all xyz 2000 relaxed.xyz
#dump            4 all atom 10 dump.atom

# Negative deformation

variable delta equal -1.0e-5*48.2200113244273
variable deltaxy equal -1.0e-5*xy
variable deltaxz equal -1.0e-5*xz
variable deltayz equal -1.0e-5*yz
change_box all yz delta -0.000482200113244273 remap units box
  triclinic box = (-24.1102 -24.1095 -24.11) to (24.1102 24.1095 24.11) with tilt (0 0 -0.0004822)

# Relax atoms positions

minimize 0 1e-10 10000000 10000000
  update every 1 steps, delay 0 steps, check yes
Step Temp PotEng Press Pxx Pyy Pzz Pxy Pxz Pyz Lx Ly Lz Volume
1259352            0   -2736.9985  0.012261048  0.088787689 -0.0089577293 -0.043046816 -0.047735755 -0.0043147926   0.73051552    48.220339    48.218923    48.220011    112117.93
Loop time of 1.0497 on 1 procs for 806 steps with 408 atoms

Minimization stats:
  Stopping criterion = force tolerance
  Energy initial, next-to-last, final =
  Force two-norm initial, final = 0.0143147 9.36822e-11
  Force max component initial, final = 0.00139572 1.33092e-11
  Final line search alpha, max atom move = 1 1.33092e-11
  Iterations, force evaluations = 806 1612

# Obtain new stress tensor

variable tmp equal pxx
variable pxx1 equal -1.3100275394582e-09
variable tmp equal pyy
variable pyy1 equal 1.72007946703735e-09
variable tmp equal pzz
variable pzz1 equal 1.78439063679804e-10
variable tmp equal pxy
variable pxy1 equal -3.72191217218751e-10
variable tmp equal pxz
variable pxz1 equal 3.40552837818521e-10
variable tmp equal pyz
variable pyz1 equal 2.20653184584494e-10

# Compute elastic constant from pressure tensor

variable C1neg equal -1.12080648668984e-08
variable C2neg equal 1.60196623518556e-08
variable C3neg equal 9.78819303719074e-10
variable C4neg equal -2.09230241465365e-09
variable C5neg equal -8.29324708687239e-09
variable C6neg equal -1.75008055792384e-08

# Reset box and simulation parameters

clear
box tilt large
read_restart restart.equil
  triclinic box = (-24.1102 -24.1095 -24.11) to (24.1102 24.1095 24.11) with tilt (0 0 0)
  408 atoms
include potential.mod
# NOTE: This script can be modified for different pair styles
# See in.elastic for more info.

# Choose potential
pair_style     rebo
pair_coeff     * * CH.airebo C
Reading potential file CH.airebo with DATE: 2011-10-25

#pair_style     lcbop
#pair_coeff     C.lcbop
#pair_style     tersoff
#pair_coeff     BNC.tersoff

# Setup neighbor style
neighbor 1.0 nsq
neigh_modify once no every 1 delay 0 check yes

# Setup minimization style
min_style	     cg
min_modify	     dmax 0.01 line quadratic

# Setup output
thermo		500
thermo_style custom step temp pe press pxx pyy pzz pxy pxz pyz lx ly lz vol
thermo_modify norm no

# Output
dump            1 all xtc 100 traj.xtc
dump            2 all xyz 2000 relaxed.xyz
#dump            4 all atom 10 dump.atom

# Positive deformation

variable delta equal 1.0e-5*48.2200113244273
variable deltaxy equal 1.0e-5*xy
variable deltaxz equal 1.0e-5*xz
variable deltayz equal 1.0e-5*yz
change_box all yz delta 0.000482200113244273 remap units box
  triclinic box = (-24.1102 -24.1095 -24.11) to (24.1102 24.1095 24.11) with tilt (0 0 0.0004822)

# Relax atoms positions

minimize 0 1e-10 10000000 10000000
  update every 1 steps, delay 0 steps, check yes
Step Temp PotEng Press Pxx Pyy Pzz Pxy Pxz Pyz Lx Ly Lz Volume
1259352            0   -2736.9985 0.0089184019   0.07179936 -0.0053516555 -0.039692499 -0.062917364 -0.020660491  -0.80587608    48.220339    48.218923    48.220011    112117.93
Loop time of 2.12411 on 1 procs for 1601 steps with 408 atoms

Minimization stats:
  Stopping criterion = force tolerance
  Energy initial, next-to-last, final =
  Force two-norm initial, final = 0.0148152 9.76734e-11
  Force max component initial, final = 0.00126578 9.43905e-12
  Final line search alpha, max atom move = 1 9.43905e-12
  Iterations, force evaluations = 1601 3202

# Obtain new stress tensor

variable tmp equal pe
variable e1 equal -2736.99853626145
variable tmp equal press
variable p1 equal 1.16114428341922e-09
variable tmp equal pxx
variable pxx1 equal 1.49844264012871e-09
variable tmp equal pyy
variable pyy1 equal 3.83442816191093e-10
variable tmp equal pzz
variable pzz1 equal 1.60154739393786e-09
variable tmp equal pxy
variable pxy1 equal 1.66268552394324e-09
variable tmp equal pxz
variable pxz1 equal -9.95357186923771e-10
variable tmp equal pyz
variable pyz1 equal 6.99686996444158e-10

# Compute elastic constant from pressure tensor

variable C1pos equal -1.68766369289707e-08
variable C2pos equal -2.65329584339307e-09
variable C3pos equal -1.52099026062996e-08
variable C4pos equal -2.69803570394299e-09
variable C5pos equal 2.16523473342953e-08
variable C6pos equal -2.8479618323815e-09

# Combine positive and negative

variable C14 equal 0.5*(-1.12080648668984e-08+-1.68766369289707e-08)
variable C24 equal 0.5*(1.60196623518556e-08+-2.65329584339307e-09)
variable C34 equal 0.5*(9.78819303719074e-10+-1.52099026062996e-08)
variable C44 equal 0.5*(-2.09230241465365e-09+-2.69803570394299e-09)
variable C54 equal 0.5*(-8.29324708687239e-09+2.16523473342953e-08)
variable C64 equal 0.5*(-1.75008055792384e-08+-2.8479618323815e-09)

# Delete dir to make sure it is not reused

variable dir delete

# uxz Perturbation

variable dir equal 5
include displace.mod
# NOTE: This script should not need to be
# modified. See in.elastic for more info.
#
# Find which reference length to use

variable len0 equal 48.2200113244273

# Reset box and simulation parameters

clear
box tilt large
read_restart restart.equil
  triclinic box = (-24.1102 -24.1095 -24.11) to (24.1102 24.1095 24.11) with tilt (0 0 0)
  408 atoms
include potential.mod
# NOTE: This script can be modified for different pair styles
# See in.elastic for more info.

# Choose potential
pair_style     rebo
pair_coeff     * * CH.airebo C
Reading potential file CH.airebo with DATE: 2011-10-25

#pair_style     lcbop
#pair_coeff     C.lcbop
#pair_style     tersoff
#pair_coeff     BNC.tersoff

# Setup neighbor style
neighbor 1.0 nsq
neigh_modify once no every 1 delay 0 check yes

# Setup minimization style
min_style	     cg
min_modify	     dmax 0.01 line quadratic

# Setup output
thermo		500
thermo_style custom step temp pe press pxx pyy pzz pxy pxz pyz lx ly lz vol
thermo_modify norm no

# Output
dump            1 all xtc 100 traj.xtc
dump            2 all xyz 2000 relaxed.xyz
#dump            4 all atom 10 dump.atom

# Negative deformation

variable delta equal -1.0e-5*48.2200113244273
variable deltaxy equal -1.0e-5*xy
variable deltaxz equal -1.0e-5*xz
variable deltayz equal -1.0e-5*yz
change_box all xz delta -0.000482200113244273 remap units box
  triclinic box = (-24.1102 -24.1095 -24.11) to (24.1102 24.1095 24.11) with tilt (0 -0.0004822 0)

# Relax atoms positions

minimize 0 1e-10 10000000 10000000
  update every 1 steps, delay 0 steps, check yes
Step Temp PotEng Press Pxx Pyy Pzz Pxy Pxz Pyz Lx Ly Lz Volume
1259352            0   -2736.9985  0.012623083  0.078198934 0.0013959204 -0.041725606 -0.047962008   0.75491112 -0.029507055    48.220339    48.218923    48.220011    112117.93
Loop time of 1.70825 on 1 procs for 1315 steps with 408 atoms

Minimization stats:
  Stopping criterion = force tolerance
  Energy initial, next-to-last, final =
  Force two-norm initial, final = 0.0145604 9.50132e-11
  Force max component initial, final = 0.00137939 1.06819e-11
  Final line search alpha, max atom move = 1 1.06819e-11
  Iterations, force evaluations = 1315 2630

# Obtain new stress tensor

variable tmp equal pxx
variable pxx1 equal 2.17499183067712e-10
variable tmp equal pyy
variable pyy1 equal -1.44640478814157e-09
variable tmp equal pzz
variable pzz1 equal -2.38650666076631e-10
variable tmp equal pxy
variable pxy1 equal 6.58354980591446e-10
variable tmp equal pxz
variable pxz1 equal 1.64449131398628e-10
variable tmp equal pyz
variable pyz1 equal 1.10020711259835e-09

# Compute elastic constant from pressure tensor

variable C1neg equal 4.06720235836071e-09
variable C2neg equal -1.56451801999336e-08
variable C3neg equal -3.19207799384528e-09
variable C4neg equal 6.70323686548491e-09
variable C5neg equal -1.00542841510713e-08
variable C6neg equal -7.19534360113644e-09

# Reset box and simulation parameters

clear
box tilt large
read_restart restart.equil
  triclinic box = (-24.1102 -24.1095 -24.11) to (24.1102 24.1095 24.11) with tilt (0 0 0)
  408 atoms
include potential.mod
# NOTE: This script can be modified for different pair styles
# See in.elastic for more info.

# Choose potential
pair_style     rebo
pair_coeff     * * CH.airebo C
Reading potential file CH.airebo with DATE: 2011-10-25

#pair_style     lcbop
#pair_coeff     C.lcbop
#pair_style     tersoff
#pair_coeff     BNC.tersoff

# Setup neighbor style
neighbor 1.0 nsq
neigh_modify once no every 1 delay 0 check yes

# Setup minimization style
min_style	     cg
min_modify	     dmax 0.01 line quadratic

# Setup output
thermo		500
thermo_style custom step temp pe press pxx pyy pzz pxy pxz pyz lx ly lz vol
thermo_modify norm no

# Output
dump            1 all xtc 100 traj.xtc
dump            2 all xyz 2000 relaxed.xyz
#dump            4 all atom 10 dump.atom

# Positive deformation

variable delta equal 1.0e-5*48.2200113244273
variable deltaxy equal 1.0e-5*xy
variable deltaxz equal 1.0e-5*xz
variable deltayz equal 1.0e-5*yz
change_box all xz delta 0.000482200113244273 remap units box
  triclinic box = (-24.1102 -24.1095 -24.11) to (24.1102 24.1095 24.11) with tilt (0 0.0004822 0)

# Relax atoms positions

minimize 0 1e-10 10000000 10000000
  update every 1 steps, delay 0 steps, check yes
Step Temp PotEng Press Pxx Pyy Pzz Pxy Pxz Pyz Lx Ly Lz Volume
1259352            0   -2736.9985 0.0085563445  0.082394453 -0.015711935 -0.041013484 -0.062691033  -0.77988719 -0.045852753    48.220339    48.218923    48.220011    112117.93
Loop time of 1.05776 on 1 procs for 812 steps with 408 atoms

Minimization stats:
  Stopping criterion = force tolerance
  Energy initial, next-to-last, final =
  Force two-norm initial, final = 0.0145716 9.25824e-11
  Force max component initial, final = 0.00123385 1.25387e-11
  Final line search alpha, max atom move = 1 1.25387e-11
  Iterations, force evaluations = 812 1624

# Obtain new stress tensor

variable tmp equal pe
variable e1 equal -2736.99853626144
variable tmp equal press
variable p1 equal 2.20864720568181e-10
variable tmp equal pxx
variable pxx1 equal -1.90234521666206e-09
variable tmp equal pyy
variable pyy1 equal 2.54851572459311e-09
variable tmp equal pzz
variable pzz1 equal 1.64236537735022e-11
variable tmp equal pxy
variable pxy1 equal -2.51599841318065e-10
variable tmp equal pxz
variable pxz1 equal 2.72484788987538e-10
variable tmp equal pyz
variable pyz1 equal -1.99997330385355e-09

# Compute elastic constant from pressure tensor

variable C1pos equal 1.7131241638937e-08
variable C2pos equal -2.43040249274132e-08
variable C3pos equal 6.41334795343944e-10
variable C4pos equal 2.42985672990341e-08
variable C5pos equal 8.97392757518222e-09
variable C6pos equal 1.62948918202316e-08

# Combine positive and negative

variable C15 equal 0.5*(4.06720235836071e-09+1.7131241638937e-08)
variable C25 equal 0.5*(-1.56451801999336e-08+-2.43040249274132e-08)
variable C35 equal 0.5*(-3.19207799384528e-09+6.41334795343944e-10)
variable C45 equal 0.5*(6.70323686548491e-09+2.42985672990341e-08)
variable C55 equal 0.5*(-1.00542841510713e-08+8.97392757518222e-09)
variable C65 equal 0.5*(-7.19534360113644e-09+1.62948918202316e-08)

# Delete dir to make sure it is not reused

variable dir delete

# uxy Perturbation

variable dir equal 6
include displace.mod
# NOTE: This script should not need to be
# modified. See in.elastic for more info.
#
# Find which reference length to use

variable len0 equal 48.2189226560944

# Reset box and simulation parameters

clear
box tilt large
read_restart restart.equil
  triclinic box = (-24.1102 -24.1095 -24.11) to (24.1102 24.1095 24.11) with tilt (0 0 0)
  408 atoms
include potential.mod
# NOTE: This script can be modified for different pair styles
# See in.elastic for more info.

# Choose potential
pair_style     rebo
pair_coeff     * * CH.airebo C
Reading potential file CH.airebo with DATE: 2011-10-25

#pair_style     lcbop
#pair_coeff     C.lcbop
#pair_style     tersoff
#pair_coeff     BNC.tersoff

# Setup neighbor style
neighbor 1.0 nsq
neigh_modify once no every 1 delay 0 check yes

# Setup minimization style
min_style	     cg
min_modify	     dmax 0.01 line quadratic

# Setup output
thermo		500
thermo_style custom step temp pe press pxx pyy pzz pxy pxz pyz lx ly lz vol
thermo_modify norm no

# Output
dump            1 all xtc 100 traj.xtc
dump            2 all xyz 2000 relaxed.xyz
#dump            4 all atom 10 dump.atom

# Negative deformation

variable delta equal -1.0e-5*48.2189226560944
variable deltaxy equal -1.0e-5*xy
variable deltaxz equal -1.0e-5*xz
variable deltayz equal -1.0e-5*yz
change_box all xy delta -0.000482189226560944 remap units box
  triclinic box = (-24.1102 -24.1095 -24.11) to (24.1102 24.1095 24.11) with tilt (-0.000482189 0 0)

# Relax atoms positions

minimize 0 1e-10 10000000 10000000
  update every 1 steps, delay 0 steps, check yes
Step Temp PotEng Press Pxx Pyy Pzz Pxy Pxz Pyz Lx Ly Lz Volume
1259352            0   -2736.9985  0.012634462  0.079260777 -0.0081580758 -0.033199316   0.71333873 -0.0051233169 -0.030089205    48.220339    48.218923    48.220011    112117.93
Loop time of 1.0534 on 1 procs for 807 steps with 408 atoms

Minimization stats:
  Stopping criterion = force tolerance
  Energy initial, next-to-last, final =
  Force two-norm initial, final = 0.0141843 9.54657e-11
  Force max component initial, final = 0.00123721 1.18827e-11
  Final line search alpha, max atom move = 1 1.18827e-11
  Iterations, force evaluations = 807 1614

# Obtain new stress tensor

variable tmp equal pxx
variable pxx1 equal -2.93414159213585e-10
variable tmp equal pyy
variable pyy1 equal 3.20984701647504e-10
variable tmp equal pzz
variable pzz1 equal 6.47477800310231e-10
variable tmp equal pxy
variable pxy1 equal 8.98541397909649e-11
variable tmp equal pxz
variable pxz1 equal -3.91838679383652e-10
variable tmp equal pyz
variable pyz1 equal -7.27603400211405e-10

# Compute elastic constant from pressure tensor

variable C1neg equal -1.04193106445226e-09
variable C2neg equal 2.02871469795718e-09
variable C3neg equal 5.66920667002334e-09
variable C4neg equal -1.15748682626126e-08
variable C5neg equal -1.56171622588941e-08
variable C6neg equal -1.28803520091412e-08

# Reset box and simulation parameters

clear
box tilt large
read_restart restart.equil
  triclinic box = (-24.1102 -24.1095 -24.11) to (24.1102 24.1095 24.11) with tilt (0 0 0)
  408 atoms
include potential.mod
# NOTE: This script can be modified for different pair styles
# See in.elastic for more info.

# Choose potential
pair_style     rebo
pair_coeff     * * CH.airebo C
Reading potential file CH.airebo with DATE: 2011-10-25

#pair_style     lcbop
#pair_coeff     C.lcbop
#pair_style     tersoff
#pair_coeff     BNC.tersoff

# Setup neighbor style
neighbor 1.0 nsq
neigh_modify once no every 1 delay 0 check yes

# Setup minimization style
min_style	     cg
min_modify	     dmax 0.01 line quadratic

# Setup output
thermo		500
thermo_style custom step temp pe press pxx pyy pzz pxy pxz pyz lx ly lz vol
thermo_modify norm no

# Output
dump            1 all xtc 100 traj.xtc
dump            2 all xyz 2000 relaxed.xyz
#dump            4 all atom 10 dump.atom

# Positive deformation

variable delta equal 1.0e-5*48.2189226560944
variable deltaxy equal 1.0e-5*xy
variable deltaxz equal 1.0e-5*xz
variable deltayz equal 1.0e-5*yz
change_box all xy delta 0.000482189226560944 remap units box
  triclinic box = (-24.1102 -24.1095 -24.11) to (24.1102 24.1095 24.11) with tilt (0.000482189 0 0)

# Relax atoms positions

minimize 0 1e-10 10000000 10000000
  update every 1 steps, delay 0 steps, check yes
Step Temp PotEng Press Pxx Pyy Pzz Pxy Pxz Pyz Lx Ly Lz Volume
1259352            0   -2736.9985 0.0085449948  0.081332912 -0.0061306517 -0.049567275  -0.82399228 -0.019852341 -0.045270564    48.220339    48.218923    48.220011    112117.93
Loop time of 1.6089 on 1 procs for 1235 steps with 408 atoms

Minimization stats:
  Stopping criterion = force tolerance
  Energy initial, next-to-last, final =
  Force two-norm initial, final = 0.014942 9.88646e-11
  Force max component initial, final = 0.00141704 1.22039e-11
  Final line search alpha, max atom move = 1 1.22039e-11
  Iterations, force evaluations = 1235 2470

# Obtain new stress tensor

variable tmp equal pe
variable e1 equal -2736.99853626144
variable tmp equal press
variable p1 equal 8.91304751907697e-10
variable tmp equal pxx
variable pxx1 equal 4.8790563101552e-10
variable tmp equal pyy
variable pyy1 equal 1.61462031772976e-09
variable tmp equal pzz
variable pzz1 equal 5.71388306977816e-10
variable tmp equal pxy
variable pxy1 equal 1.23548331648662e-09
variable tmp equal pxz
variable pxz1 equal 1.35277155800203e-09
variable tmp equal pyz
variable pyz1 equal 6.63228769655607e-10

# Compute elastic constant from pressure tensor

variable C1pos equal -6.77126683783879e-09
variable C2pos equal -1.49650708587797e-08
variable C3pos equal -4.90831173669919e-09
variable C4pos equal -2.33345343605748e-09
variable C5pos equal -1.8289401149627e-09
variable C6pos equal 1.4240602421847e-09

# Combine positive and negative

variable C16 equal 0.5*(-1.04193106445226e-09+-6.77126683783879e-09)
variable C26 equal 0.5*(2.02871469795718e-09+-1.49650708587797e-08)
variable C36 equal 0.5*(5.66920667002334e-09+-4.90831173669919e-09)
variable C46 equal 0.5*(-1.15748682626126e-08+-2.33345343605748e-09)
variable C56 equal 0.5*(-1.56171622588941e-08+-1.8289401149627e-09)
variable C66 equal 0.5*(-1.28803520091412e-08+1.4240602421847e-09)

# Delete dir to make sure it is not reused

variable dir delete

# Output final values

variable C11all equal -2.41498490575445e-08
variable C22all equal -3.5656972788947e-09
variable C33all equal 3.45498972160193e-09

variable C12all equal 0.5*(2.41900740534552e-09+-7.92419208802698e-09)
variable C13all equal 0.5*(1.77612393937876e-08+-2.32548469978658e-08)
variable C23all equal 0.5*(-1.56764198887735e-08+-3.24857261847159e-09)

variable C44all equal -2.39516905929832e-09
variable C55all equal -5.4017828794454e-10
variable C66all equal -5.72814588347825e-09

variable C14all equal 0.5*(-1.40423508979345e-08+1.49672158836985e-08)
variable C15all equal 0.5*(1.05992219986489e-08+4.2523208174278e-09)
variable C16all equal 0.5*(-3.90659895114553e-09+-1.36426383638052e-08)

variable C24all equal 0.5*(6.68318325423126e-09+8.2437542430042e-09)
variable C25all equal 0.5*(-1.99746025636734e-08+-7.796023897423e-09)
variable C26all equal 0.5*(-6.46817808041126e-09+3.6146178887182e-09)

variable C34all equal 0.5*(-7.11554165129026e-09+2.34783998667568e-08)
variable C35all equal 0.5*(-1.27537159925067e-09+-6.97025750762145e-09)
variable C36all equal 0.5*(3.80447466662075e-10+-5.49397373336165e-09)

variable C45all equal 0.5*(1.55009020822595e-08+6.67955012371145e-09)
variable C46all equal 0.5*(-6.95416084933504e-09+-1.01743837058099e-08)
variable C56all equal 0.5*(-8.7230511869284e-09+4.54977410954758e-09)

# Average moduli for cubic crystals

variable C11cubic equal (-2.41498490575445e-08+-3.5656972788947e-09+3.45498972160193e-09)/3.0
variable C12cubic equal (-2.75259234134073e-09+-2.7468038020391e-09+-9.46249625362254e-09)/3.0
variable C44cubic equal (-2.39516905929832e-09+-5.4017828794454e-10+-5.72814588347825e-09)/3.0

variable bulkmodulus equal (-8.08685220494576e-09+2*-4.98729746566746e-09)/3.0
variable shearmodulus1 equal -2.88783107690704e-09
variable shearmodulus2 equal (-8.08685220494576e-09--4.98729746566746e-09)/2.0
variable poissonratio equal 1.0/(1.0+-8.08685220494576e-09/-4.98729746566746e-09)

# For Stillinger-Weber silicon, the analytical results
# are known to be (E. R. Cowley, 1988):
#               C11 = 151.4 GPa
#               C12 = 76.4 GPa
#               C44 = 56.4 GPa

print "========================================="
=========================================
print "Components of the Elastic Constant Tensor"
Components of the Elastic Constant Tensor
print "========================================="
=========================================

Elastic Constant C11all = -2.41498490575445e-08 GPa
Elastic Constant C22all = -3.5656972788947e-09 GPa
Elastic Constant C33all = 3.45498972160193e-09 GPa

Elastic Constant C12all = -2.75259234134073e-09 GPa
Elastic Constant C13all = -2.7468038020391e-09 GPa
Elastic Constant C23all = -9.46249625362254e-09 GPa

Elastic Constant C44all = -2.39516905929832e-09 GPa
Elastic Constant C55all = -5.4017828794454e-10 GPa
Elastic Constant C66all = -5.72814588347825e-09 GPa

Elastic Constant C14all = 4.62432492881999e-10 GPa
Elastic Constant C15all = 7.42577140803835e-09 GPa
Elastic Constant C16all = -8.77461865747536e-09 GPa

Elastic Constant C24all = 7.46346874861773e-09 GPa
Elastic Constant C25all = -1.38853132305482e-08 GPa
Elastic Constant C26all = -1.42678009584653e-09 GPa

Elastic Constant C34all = 8.18142910773327e-09 GPa
Elastic Constant C35all = -4.12281455343606e-09 GPa
Elastic Constant C36all = -2.55676313334979e-09 GPa

Elastic Constant C45all = 1.10902261029855e-08 GPa
Elastic Constant C46all = -8.56427227757247e-09 GPa
Elastic Constant C56all = -2.08663853869041e-09 GPa

print "========================================="
=========================================
print "Average properties for a cubic crystal"
Average properties for a cubic crystal
print "========================================="
=========================================

Bulk Modulus = -6.02048237876023e-09 GPa
Shear Modulus 1 = -2.88783107690704e-09 GPa
Shear Modulus 2 = -1.54977736963915e-09 GPa
Poisson Ratio = 0.381462472995656
Deformation size: 1.0e-5

print "Lattice_type	lattice_constant	bulk_modulus	poisson	     c11	     c12         c44	" file elastic_constants.out
Lattice_type	lattice_constant	bulk_modulus	poisson	     c11	     c12         c44
sc    10.0    -6.02048237876023e-09     0.381462472995656     -2.41498490575445e-08     -2.75259234134073e-09     -2.39516905929832e-09
