read_data       P8-3.txt
  orthogonal box = (-14.6036 -14.6036 -14.6036) to (14.6036 14.6036 14.6036)
  reading atoms ...
  768 atoms
change_box 	all triclinic
  triclinic box = (-14.6036 -14.6036 -14.6036) to (14.6036 14.6036 14.6036) with tilt (0 0 0)

include potential.mod
# NOTE: This script can be modified for different pair styles
# See in.elastic for more info.

# Choose potential
pair_style     rebo
pair_coeff     * * CH.airebo C
Reading potential file CH.airebo with DATE: 2011-10-25

#pair_style     lcbop
#pair_coeff     C.lcbop
#pair_style     tersoff
#pair_coeff     BNC.tersoff

# Setup neighbor style
neighbor 1.0 nsq
neigh_modify once no every 1 delay 0 check yes

# Setup minimization style
min_style	     cg
min_modify	     dmax 0.01 line quadratic

# Setup output
thermo		500
thermo_style custom step temp pe press pxx pyy pzz pxy pxz pyz lx ly lz vol
thermo_modify norm no

# Output
dump            1 all xtc 100 traj.xtc
dump            2 all xyz 2000 relaxed.xyz
#dump            4 all atom 10 dump.atom

# Compute initial state
fix 3 all box/relax  aniso 0.0
minimize 0 1e-10 10000000 10000000
  update every 1 steps, delay 0 steps, check yes
Step Temp PotEng Press Pxx Pyy Pzz Pxy Pxz Pyz Lx Ly Lz Volume
0            0   -5014.9647    103941.49    99132.074     102900.4    109791.99 -1.2974873e-10 -7.6591279e-11 -4.1105557e-10     29.20716     29.20716     29.20716    24915.407
Averages over the last 13 of 25 rows, steps 6000 to 11515:
Temp PotEng Press Pxx Pyy Pzz Pxy Pxz Pyz Lx Ly Lz Volume
0 -5632.83 -24.8389 -25.3229 -26.466 -22.7277 0.00148699 0.00437911 0.000390932 29.1309 29.1399 29.1523 24748
Loop time of 22.8269 on 1 procs for 11515 steps with 768 atoms

Minimization stats:
  Stopping criterion = force tolerance
  Energy initial, next-to-last, final =
  Force two-norm initial, final = 2870.31 9.40779e-11
  Force max component initial, final = 1707.37 2.20224e-11
  Final line search alpha, max atom move = 1 2.20224e-11
  Iterations, force evaluations = 11515 13697

#dump rel all xyz 10 relaxed-*.xyz
#dump 3 all xyz 10 relaxed.xyz
#dump 3 all atom 10 dump.atom

variable tmp equal pxx
variable pxx0 equal 1.31328261116283e-09
variable tmp equal pyy
variable pyy0 equal 1.43442393832707e-09
variable tmp equal pzz
variable pzz0 equal 1.36153751244013e-09
variable tmp equal pyz
variable pyz0 equal -1.71506110740163e-10
variable tmp equal pxz
variable pxz0 equal 3.41627870811147e-10
variable tmp equal pxy
variable pxy0 equal 2.26373075405015e-10

variable tmp equal lx
variable lx0 equal 29.0204418048045
variable tmp equal ly
variable ly0 equal 29.0204418048036
variable tmp equal lz
variable lz0 equal 29.0204418048016

# These formulas define the derivatives w.r.t. strain components
# Constants uses $, variables use v_
variable d1 equal -(v_pxx1-1.31328261116283e-09)/(v_delta/v_len0)*0.0001
variable d2 equal -(v_pyy1-1.43442393832707e-09)/(v_delta/v_len0)*0.0001
variable d3 equal -(v_pzz1-1.36153751244013e-09)/(v_delta/v_len0)*0.0001
variable d4 equal -(v_pyz1--1.71506110740163e-10)/(v_delta/v_len0)*0.0001
variable d5 equal -(v_pxz1-3.41627870811147e-10)/(v_delta/v_len0)*0.0001
variable d6 equal -(v_pxy1-2.26373075405015e-10)/(v_delta/v_len0)*0.0001

displace_atoms all random 1e-05 1e-05 1e-05 87287 units box

# Write restart
unfix 3
write_restart restart.equil

# uxx Perturbation

variable dir equal 1
include displace.mod
# NOTE: This script should not need to be
# modified. See in.elastic for more info.
#
# Find which reference length to use

variable len0 equal 29.0204418048045

# Reset box and simulation parameters

clear
box tilt large
read_restart restart.equil
  triclinic box = (-14.5102 -14.5102 -14.5102) to (14.5102 14.5102 14.5102) with tilt (0 0 0)
  768 atoms
include potential.mod
# NOTE: This script can be modified for different pair styles
# See in.elastic for more info.

# Choose potential
pair_style     rebo
pair_coeff     * * CH.airebo C
Reading potential file CH.airebo with DATE: 2011-10-25

#pair_style     lcbop
#pair_coeff     C.lcbop
#pair_style     tersoff
#pair_coeff     BNC.tersoff

# Setup neighbor style
neighbor 1.0 nsq
neigh_modify once no every 1 delay 0 check yes

# Setup minimization style
min_style	     cg
min_modify	     dmax 0.01 line quadratic

# Setup output
thermo		500
thermo_style custom step temp pe press pxx pyy pzz pxy pxz pyz lx ly lz vol
thermo_modify norm no

# Output
dump            1 all xtc 100 traj.xtc
dump            2 all xyz 2000 relaxed.xyz
#dump            4 all atom 10 dump.atom

# Negative deformation

variable delta equal -1.0e-5*29.0204418048045
variable deltaxy equal -1.0e-5*xy
variable deltaxz equal -1.0e-5*xz
variable deltayz equal -1.0e-5*yz
change_box all x delta 0 -0.000290204418048045 xy delta -0 xz delta -0 remap units box
  triclinic box = (-14.5102 -14.5102 -14.5102) to (14.5099 14.5102 14.5102) with tilt (0 0 0)
  triclinic box = (-14.5102 -14.5102 -14.5102) to (14.5099 14.5102 14.5102) with tilt (0 0 0)
  triclinic box = (-14.5102 -14.5102 -14.5102) to (14.5099 14.5102 14.5102) with tilt (0 0 0)

# Relax atoms positions

minimize 0 1e-10 10000000 10000000
  update every 1 steps, delay 0 steps, check yes
Step Temp PotEng Press Pxx Pyy Pzz Pxy Pxz Pyz Lx Ly Lz Volume
11515            0   -5635.8428    7.3414667    13.733101    3.9579284    4.3333702  0.063774388    0.3049675    0.0504407    29.020152    29.020442    29.020442    24440.367
Loop time of 1.49427 on 1 procs for 455 steps with 768 atoms

Minimization stats:
  Stopping criterion = force tolerance
  Energy initial, next-to-last, final =
  Force two-norm initial, final = 0.0205402 9.81441e-11
  Force max component initial, final = 0.00142601 8.27458e-12
  Final line search alpha, max atom move = 1 8.27458e-12
  Iterations, force evaluations = 455 910

# Obtain new stress tensor

variable tmp equal pxx
variable pxx1 equal 5.47435884863072
variable tmp equal pyy
variable pyy1 equal 3.43920308971647
variable tmp equal pzz
variable pzz1 equal 3.43920310439275
variable tmp equal pxy
variable pxy1 equal 4.12759448455457e-09
variable tmp equal pxz
variable pxz1 equal 8.30060413362309e-09
variable tmp equal pyz
variable pyz1 equal 4.59531637078432e-09

# Compute elastic constant from pressure tensor

variable C1neg equal 54.7435884731744
variable C2neg equal 34.3920308828205
variable C3neg equal 34.3920310303121
variable C4neg equal 4.76682248152448e-08
variable C5neg equal 7.95897626281194e-08
variable C6neg equal 3.90122140914956e-08

# Reset box and simulation parameters

clear
box tilt large
read_restart restart.equil
  triclinic box = (-14.5102 -14.5102 -14.5102) to (14.5102 14.5102 14.5102) with tilt (0 0 0)
  768 atoms
include potential.mod
# NOTE: This script can be modified for different pair styles
# See in.elastic for more info.

# Choose potential
pair_style     rebo
pair_coeff     * * CH.airebo C
Reading potential file CH.airebo with DATE: 2011-10-25

#pair_style     lcbop
#pair_coeff     C.lcbop
#pair_style     tersoff
#pair_coeff     BNC.tersoff

# Setup neighbor style
neighbor 1.0 nsq
neigh_modify once no every 1 delay 0 check yes

# Setup minimization style
min_style	     cg
min_modify	     dmax 0.01 line quadratic

# Setup output
thermo		500
thermo_style custom step temp pe press pxx pyy pzz pxy pxz pyz lx ly lz vol
thermo_modify norm no

# Output
dump            1 all xtc 100 traj.xtc
dump            2 all xyz 2000 relaxed.xyz
#dump            4 all atom 10 dump.atom

# Positive deformation

variable delta equal 1.0e-5*29.0204418048045
variable deltaxy equal 1.0e-5*xy
variable deltaxz equal 1.0e-5*xz
variable deltayz equal 1.0e-5*yz
change_box all x delta 0 0.000290204418048045 xy delta 0 xz delta 0 remap units box
  triclinic box = (-14.5102 -14.5102 -14.5102) to (14.5105 14.5102 14.5102) with tilt (0 0 0)
  triclinic box = (-14.5102 -14.5102 -14.5102) to (14.5105 14.5102 14.5102) with tilt (0 0 0)
  triclinic box = (-14.5102 -14.5102 -14.5102) to (14.5105 14.5102 14.5102) with tilt (0 0 0)

# Relax atoms positions

minimize 0 1e-10 10000000 10000000
  update every 1 steps, delay 0 steps, check yes
Step Temp PotEng Press Pxx Pyy Pzz Pxy Pxz Pyz Lx Ly Lz Volume
11515            0   -5635.8428   -7.3153483   -13.975108    -4.173178   -3.7977592  0.063812952   0.30495357  0.050422134    29.020732    29.020442    29.020442    24440.855
Loop time of 1.49872 on 1 procs for 456 steps with 768 atoms

Minimization stats:
  Stopping criterion = force tolerance
  Energy initial, next-to-last, final =
  Force two-norm initial, final = 0.0208808 8.90251e-11
  Force max component initial, final = 0.00163101 6.03043e-12
  Final line search alpha, max atom move = 1 6.03043e-12
  Iterations, force evaluations = 456 912

# Obtain new stress tensor

variable tmp equal pe
variable e1 equal -5635.84279622922
variable tmp equal press
variable p1 equal -4.11767236688994
variable tmp equal pxx
variable pxx1 equal -5.47462577376478
variable tmp equal pyy
variable pyy1 equal -3.43919567017039
variable tmp equal pzz
variable pzz1 equal -3.43919565673466
variable tmp equal pxy
variable pxy1 equal 2.73644932210606e-09
variable tmp equal pxz
variable pxz1 equal 8.99272710737526e-09
variable tmp equal pyz
variable pyz1 equal 1.69269710432937e-09

# Compute elastic constant from pressure tensor

variable C1pos equal 54.7462577507806
variable C2pos equal 34.3919567160481
variable C3pos equal 34.391956580962
variable C4pos equal -1.86420321506953e-08
variable C5pos equal -8.65109923656411e-08
variable C6pos equal -2.51007624670105e-08

# Combine positive and negative

variable C11 equal 0.5*(54.7435884731744+54.7462577507806)
variable C21 equal 0.5*(34.3920308828205+34.3919567160481)
variable C31 equal 0.5*(34.3920310303121+34.391956580962)
variable C41 equal 0.5*(4.76682248152448e-08+-1.86420321506953e-08)
variable C51 equal 0.5*(7.95897626281194e-08+-8.65109923656411e-08)
variable C61 equal 0.5*(3.90122140914956e-08+-2.51007624670105e-08)

# Delete dir to make sure it is not reused

variable dir delete

# uyy Perturbation

variable dir equal 2
include displace.mod
# NOTE: This script should not need to be
# modified. See in.elastic for more info.
#
# Find which reference length to use

variable len0 equal 29.0204418048036

# Reset box and simulation parameters

clear
box tilt large
read_restart restart.equil
  triclinic box = (-14.5102 -14.5102 -14.5102) to (14.5102 14.5102 14.5102) with tilt (0 0 0)
  768 atoms
include potential.mod
# NOTE: This script can be modified for different pair styles
# See in.elastic for more info.

# Choose potential
pair_style     rebo
pair_coeff     * * CH.airebo C
Reading potential file CH.airebo with DATE: 2011-10-25

#pair_style     lcbop
#pair_coeff     C.lcbop
#pair_style     tersoff
#pair_coeff     BNC.tersoff

# Setup neighbor style
neighbor 1.0 nsq
neigh_modify once no every 1 delay 0 check yes

# Setup minimization style
min_style	     cg
min_modify	     dmax 0.01 line quadratic

# Setup output
thermo		500
thermo_style custom step temp pe press pxx pyy pzz pxy pxz pyz lx ly lz vol
thermo_modify norm no

# Output
dump            1 all xtc 100 traj.xtc
dump            2 all xyz 2000 relaxed.xyz
#dump            4 all atom 10 dump.atom

# Negative deformation

variable delta equal -1.0e-5*29.0204418048036
variable deltaxy equal -1.0e-5*xy
variable deltaxz equal -1.0e-5*xz
variable deltayz equal -1.0e-5*yz
change_box all y delta 0 -0.000290204418048036 yz delta -0 remap units box
  triclinic box = (-14.5102 -14.5102 -14.5102) to (14.5102 14.5099 14.5102) with tilt (0 0 0)
  triclinic box = (-14.5102 -14.5102 -14.5102) to (14.5102 14.5099 14.5102) with tilt (0 0 0)

# Relax atoms positions

minimize 0 1e-10 10000000 10000000
  update every 1 steps, delay 0 steps, check yes
Step Temp PotEng Press Pxx Pyy Pzz Pxy Pxz Pyz Lx Ly Lz Volume
11515            0   -5635.8428    7.3414693     3.944307     13.74674    4.3333614  0.063821828   0.30499288  0.050439987    29.020442    29.020152    29.020442    24440.367
Loop time of 1.50727 on 1 procs for 455 steps with 768 atoms

Minimization stats:
  Stopping criterion = force tolerance
  Energy initial, next-to-last, final =
  Force two-norm initial, final = 0.0205945 9.78086e-11
  Force max component initial, final = 0.00140104 8.95576e-12
  Final line search alpha, max atom move = 1 8.95576e-12
  Iterations, force evaluations = 455 910

# Obtain new stress tensor

variable tmp equal pxx
variable pxx1 equal 3.43920308241544
variable tmp equal pyy
variable pyy1 equal 5.47435885489104
variable tmp equal pzz
variable pzz1 equal 3.4392031035997
variable tmp equal pxy
variable pxy1 equal 4.12159740123839e-09
variable tmp equal pxz
variable pxz1 equal 7.28520158515343e-09
variable tmp equal pyz
variable pyz1 equal 1.84216987707002e-09

# Compute elastic constant from pressure tensor

variable C1neg equal 34.3920308110216
variable C2neg equal 54.7435885345662
variable C3neg equal 34.3920310223816
variable C4neg equal 2.01367598781018e-08
variable C5neg equal 6.94357371434228e-08
variable C6neg equal 3.89522432583338e-08

# Reset box and simulation parameters

clear
box tilt large
read_restart restart.equil
  triclinic box = (-14.5102 -14.5102 -14.5102) to (14.5102 14.5102 14.5102) with tilt (0 0 0)
  768 atoms
include potential.mod
# NOTE: This script can be modified for different pair styles
# See in.elastic for more info.

# Choose potential
pair_style     rebo
pair_coeff     * * CH.airebo C
Reading potential file CH.airebo with DATE: 2011-10-25

#pair_style     lcbop
#pair_coeff     C.lcbop
#pair_style     tersoff
#pair_coeff     BNC.tersoff

# Setup neighbor style
neighbor 1.0 nsq
neigh_modify once no every 1 delay 0 check yes

# Setup minimization style
min_style	     cg
min_modify	     dmax 0.01 line quadratic

# Setup output
thermo		500
thermo_style custom step temp pe press pxx pyy pzz pxy pxz pyz lx ly lz vol
thermo_modify norm no

# Output
dump            1 all xtc 100 traj.xtc
dump            2 all xyz 2000 relaxed.xyz
#dump            4 all atom 10 dump.atom

# Positive deformation

variable delta equal 1.0e-5*29.0204418048036
variable deltaxy equal 1.0e-5*xy
variable deltaxz equal 1.0e-5*xz
variable deltayz equal 1.0e-5*yz
change_box all y delta 0 0.000290204418048036 yz delta 0 remap units box
  triclinic box = (-14.5102 -14.5102 -14.5102) to (14.5102 14.5105 14.5102) with tilt (0 0 0)
  triclinic box = (-14.5102 -14.5102 -14.5102) to (14.5102 14.5105 14.5102) with tilt (0 0 0)

# Relax atoms positions

minimize 0 1e-10 10000000 10000000
  update every 1 steps, delay 0 steps, check yes
Step Temp PotEng Press Pxx Pyy Pzz Pxy Pxz Pyz Lx Ly Lz Volume
11515            0   -5635.8428   -7.3153509   -4.1867991   -13.961503   -3.7977504  0.063765515   0.30492819  0.050422847    29.020442    29.020732    29.020442    24440.855
Loop time of 1.50555 on 1 procs for 456 steps with 768 atoms

Minimization stats:
  Stopping criterion = force tolerance
  Energy initial, next-to-last, final =
  Force two-norm initial, final = 0.0208273 8.91019e-11
  Force max component initial, final = 0.00152017 6.85221e-12
  Final line search alpha, max atom move = 1 6.85221e-12
  Iterations, force evaluations = 456 912

# Obtain new stress tensor

variable tmp equal pe
variable e1 equal -5635.84279622922
variable tmp equal press
variable p1 equal -4.11767236721715
variable tmp equal pxx
variable pxx1 equal -3.43919567765095
variable tmp equal pyy
variable pyy1 equal -5.47462576703657
variable tmp equal pzz
variable pzz1 equal -3.43919565696394
variable tmp equal pxy
variable pxy1 equal 3.89575549934443e-09
variable tmp equal pxz
variable pxz1 equal 9.46654783730248e-09
variable tmp equal pyz
variable pyz1 equal 1.65223091932429e-09

# Compute elastic constant from pressure tensor

variable C1pos equal 34.3919567896423
variable C2pos equal 54.74625768471
variable C3pos equal 34.3919565832548
variable C4pos equal -1.82373703006445e-08
variable C5pos equal -9.12491996649134e-08
variable C6pos equal -3.66938242393942e-08

# Combine positive and negative

variable C12 equal 0.5*(34.3920308110216+34.3919567896423)
variable C22 equal 0.5*(54.7435885345662+54.74625768471)
variable C32 equal 0.5*(34.3920310223816+34.3919565832548)
variable C42 equal 0.5*(2.01367598781018e-08+-1.82373703006445e-08)
variable C52 equal 0.5*(6.94357371434228e-08+-9.12491996649134e-08)
variable C62 equal 0.5*(3.89522432583338e-08+-3.66938242393942e-08)

# Delete dir to make sure it is not reused

variable dir delete

# uzz Perturbation

variable dir equal 3
include displace.mod
# NOTE: This script should not need to be
# modified. See in.elastic for more info.
#
# Find which reference length to use

variable len0 equal 29.0204418048016

# Reset box and simulation parameters

clear
box tilt large
read_restart restart.equil
  triclinic box = (-14.5102 -14.5102 -14.5102) to (14.5102 14.5102 14.5102) with tilt (0 0 0)
  768 atoms
include potential.mod
# NOTE: This script can be modified for different pair styles
# See in.elastic for more info.

# Choose potential
pair_style     rebo
pair_coeff     * * CH.airebo C
Reading potential file CH.airebo with DATE: 2011-10-25

#pair_style     lcbop
#pair_coeff     C.lcbop
#pair_style     tersoff
#pair_coeff     BNC.tersoff

# Setup neighbor style
neighbor 1.0 nsq
neigh_modify once no every 1 delay 0 check yes

# Setup minimization style
min_style	     cg
min_modify	     dmax 0.01 line quadratic

# Setup output
thermo		500
thermo_style custom step temp pe press pxx pyy pzz pxy pxz pyz lx ly lz vol
thermo_modify norm no

# Output
dump            1 all xtc 100 traj.xtc
dump            2 all xyz 2000 relaxed.xyz
#dump            4 all atom 10 dump.atom

# Negative deformation

variable delta equal -1.0e-5*29.0204418048016
variable deltaxy equal -1.0e-5*xy
variable deltaxz equal -1.0e-5*xz
variable deltayz equal -1.0e-5*yz
change_box all z delta 0 -0.000290204418048016 remap units box
  triclinic box = (-14.5102 -14.5102 -14.5102) to (14.5102 14.5102 14.5099) with tilt (0 0 0)

# Relax atoms positions

minimize 0 1e-10 10000000 10000000
  update every 1 steps, delay 0 steps, check yes
Step Temp PotEng Press Pxx Pyy Pzz Pxy Pxz Pyz Lx Ly Lz Volume
11515            0   -5635.8428    7.3414831    3.9443148    3.9579273    14.122207  0.063795133   0.30497508  0.050420508    29.020442    29.020442    29.020152    24440.367
Loop time of 1.53675 on 1 procs for 455 steps with 768 atoms

Minimization stats:
  Stopping criterion = force tolerance
  Energy initial, next-to-last, final =
  Force two-norm initial, final = 0.0209854 9.58125e-11
  Force max component initial, final = 0.00142602 7.48662e-12
  Final line search alpha, max atom move = 1 7.48662e-12
  Iterations, force evaluations = 455 910

# Obtain new stress tensor

variable tmp equal pxx
variable pxx1 equal 3.43920308335346
variable tmp equal pyy
variable pyy1 equal 3.43920309009136
variable tmp equal pzz
variable pzz1 equal 5.47435886861432
variable tmp equal pxy
variable pxy1 equal 3.1143494126142e-09
variable tmp equal pxz
variable pxz1 equal 8.4929022880145e-09
variable tmp equal pyz
variable pyz1 equal 1.96855350227329e-09

# Compute elastic constant from pressure tensor

variable C1neg equal 34.3920308204018
variable C2neg equal 34.3920308865694
variable C3neg equal 54.7435886725278
variable C4neg equal 2.14005961301345e-08
variable C5neg equal 8.15127441720335e-08
variable C6neg equal 2.88797633720919e-08

# Reset box and simulation parameters

clear
box tilt large
read_restart restart.equil
  triclinic box = (-14.5102 -14.5102 -14.5102) to (14.5102 14.5102 14.5102) with tilt (0 0 0)
  768 atoms
include potential.mod
# NOTE: This script can be modified for different pair styles
# See in.elastic for more info.

# Choose potential
pair_style     rebo
pair_coeff     * * CH.airebo C
Reading potential file CH.airebo with DATE: 2011-10-25

#pair_style     lcbop
#pair_coeff     C.lcbop
#pair_style     tersoff
#pair_coeff     BNC.tersoff

# Setup neighbor style
neighbor 1.0 nsq
neigh_modify once no every 1 delay 0 check yes

# Setup minimization style
min_style	     cg
min_modify	     dmax 0.01 line quadratic

# Setup output
thermo		500
thermo_style custom step temp pe press pxx pyy pzz pxy pxz pyz lx ly lz vol
thermo_modify norm no

# Output
dump            1 all xtc 100 traj.xtc
dump            2 all xyz 2000 relaxed.xyz
#dump            4 all atom 10 dump.atom

# Positive deformation

variable delta equal 1.0e-5*29.0204418048016
variable deltaxy equal 1.0e-5*xy
variable deltaxz equal 1.0e-5*xz
variable deltayz equal 1.0e-5*yz
change_box all z delta 0 0.000290204418048016 remap units box
  triclinic box = (-14.5102 -14.5102 -14.5102) to (14.5102 14.5102 14.5105) with tilt (0 0 0)

# Relax atoms positions

minimize 0 1e-10 10000000 10000000
  update every 1 steps, delay 0 steps, check yes
Step Temp PotEng Press Pxx Pyy Pzz Pxy Pxz Pyz Lx Ly Lz Volume
11515            0   -5635.8428   -7.3153647   -4.1868069    -4.173177    -13.58611  0.063792209   0.30494599  0.050442325    29.020442    29.020442    29.020732    24440.855
Loop time of 1.4815 on 1 procs for 456 steps with 768 atoms

Minimization stats:
  Stopping criterion = force tolerance
  Energy initial, next-to-last, final =
  Force two-norm initial, final = 0.0204335 8.801e-11
  Force max component initial, final = 0.00164036 6.55725e-12
  Final line search alpha, max atom move = 1 6.55725e-12
  Iterations, force evaluations = 456 912

# Obtain new stress tensor

variable tmp equal pe
variable e1 equal -5635.84279622922
variable tmp equal press
variable p1 equal -4.11767236727606
variable tmp equal pxx
variable pxx1 equal -3.43919567702421
variable tmp equal pyy
variable pyy1 equal -3.43919567072056
variable tmp equal pzz
variable pzz1 equal -5.47462575408341
variable tmp equal pxy
variable pxy1 equal 3.65712875764182e-09
variable tmp equal pxz
variable pxz1 equal 8.03944916716641e-09
variable tmp equal pyz
variable pyz1 equal 1.37525568096496e-09

# Compute elastic constant from pressure tensor

variable C1pos equal 34.3919567833749
variable C2pos equal 34.3919567215498
variable C3pos equal 54.7462575544495
variable C4pos equal -1.54676179170512e-08
variable C5pos equal -7.69782129635526e-08
variable C6pos equal -3.43075568223681e-08

# Combine positive and negative

variable C13 equal 0.5*(34.3920308204018+34.3919567833749)
variable C23 equal 0.5*(34.3920308865694+34.3919567215498)
variable C33 equal 0.5*(54.7435886725278+54.7462575544495)
variable C43 equal 0.5*(2.14005961301345e-08+-1.54676179170512e-08)
variable C53 equal 0.5*(8.15127441720335e-08+-7.69782129635526e-08)
variable C63 equal 0.5*(2.88797633720919e-08+-3.43075568223681e-08)

# Delete dir to make sure it is not reused

variable dir delete

# uyz Perturbation

variable dir equal 4
include displace.mod
# NOTE: This script should not need to be
# modified. See in.elastic for more info.
#
# Find which reference length to use

variable len0 equal 29.0204418048016

# Reset box and simulation parameters

clear
box tilt large
read_restart restart.equil
  triclinic box = (-14.5102 -14.5102 -14.5102) to (14.5102 14.5102 14.5102) with tilt (0 0 0)
  768 atoms
include potential.mod
# NOTE: This script can be modified for different pair styles
# See in.elastic for more info.

# Choose potential
pair_style     rebo
pair_coeff     * * CH.airebo C
Reading potential file CH.airebo with DATE: 2011-10-25

#pair_style     lcbop
#pair_coeff     C.lcbop
#pair_style     tersoff
#pair_coeff     BNC.tersoff

# Setup neighbor style
neighbor 1.0 nsq
neigh_modify once no every 1 delay 0 check yes

# Setup minimization style
min_style	     cg
min_modify	     dmax 0.01 line quadratic

# Setup output
thermo		500
thermo_style custom step temp pe press pxx pyy pzz pxy pxz pyz lx ly lz vol
thermo_modify norm no

# Output
dump            1 all xtc 100 traj.xtc
dump            2 all xyz 2000 relaxed.xyz
#dump            4 all atom 10 dump.atom

# Negative deformation

variable delta equal -1.0e-5*29.0204418048016
variable deltaxy equal -1.0e-5*xy
variable deltaxz equal -1.0e-5*xz
variable deltayz equal -1.0e-5*yz
change_box all yz delta -0.000290204418048016 remap units box
  triclinic box = (-14.5102 -14.5102 -14.5102) to (14.5102 14.5102 14.5102) with tilt (0 0 -0.000290204)

# Relax atoms positions

minimize 0 1e-10 10000000 10000000
  update every 1 steps, delay 0 steps, check yes
Step Temp PotEng Press Pxx Pyy Pzz Pxy Pxz Pyz Lx Ly Lz Volume
11515            0   -5635.8428  0.012883963  -0.12136092  -0.10775019     0.267763  0.063818797    0.3049571    7.5625811    29.020442    29.020442    29.020442    24440.611
Loop time of 1.49487 on 1 procs for 455 steps with 768 atoms

Minimization stats:
  Stopping criterion = force tolerance
  Energy initial, next-to-last, final =
  Force two-norm initial, final = 0.0205933 8.64765e-11
  Force max component initial, final = 0.00142909 6.41058e-12
  Final line search alpha, max atom move = 1 6.41058e-12
  Iterations, force evaluations = 455 910

# Obtain new stress tensor

variable tmp equal pxx
variable pxx1 equal -1.78754669817757e-05
variable tmp equal pyy
variable pyy1 equal -7.48600058789013e-05
variable tmp equal pzz
variable pzz1 equal 1.28005322658739e-06
variable tmp equal pxy
variable pxy1 equal -1.49139566010788e-10
variable tmp equal pxz
variable pxz1 equal 8.64133227744868e-10
variable tmp equal pyz
variable pyz1 equal 4.31492760796252

# Compute elastic constant from pressure tensor

variable C1neg equal -0.000178767802643869
variable C2neg equal -0.000748614403028396
variable C3neg equal 1.27869168907495e-05
variable C4neg equal 43.1492760813403
variable C5neg equal 5.22505356933721e-09
variable C6neg equal -3.75512641415803e-09

# Reset box and simulation parameters

clear
box tilt large
read_restart restart.equil
  triclinic box = (-14.5102 -14.5102 -14.5102) to (14.5102 14.5102 14.5102) with tilt (0 0 0)
  768 atoms
include potential.mod
# NOTE: This script can be modified for different pair styles
# See in.elastic for more info.

# Choose potential
pair_style     rebo
pair_coeff     * * CH.airebo C
Reading potential file CH.airebo with DATE: 2011-10-25

#pair_style     lcbop
#pair_coeff     C.lcbop
#pair_style     tersoff
#pair_coeff     BNC.tersoff

# Setup neighbor style
neighbor 1.0 nsq
neigh_modify once no every 1 delay 0 check yes

# Setup minimization style
min_style	     cg
min_modify	     dmax 0.01 line quadratic

# Setup output
thermo		500
thermo_style custom step temp pe press pxx pyy pzz pxy pxz pyz lx ly lz vol
thermo_modify norm no

# Output
dump            1 all xtc 100 traj.xtc
dump            2 all xyz 2000 relaxed.xyz
#dump            4 all atom 10 dump.atom

# Positive deformation

variable delta equal 1.0e-5*29.0204418048016
variable deltaxy equal 1.0e-5*xy
variable deltaxz equal 1.0e-5*xz
variable deltayz equal 1.0e-5*yz
change_box all yz delta 0.000290204418048016 remap units box
  triclinic box = (-14.5102 -14.5102 -14.5102) to (14.5102 14.5102 14.5102) with tilt (0 0 0.000290204)

# Relax atoms positions

minimize 0 1e-10 10000000 10000000
  update every 1 steps, delay 0 steps, check yes
Step Temp PotEng Press Pxx Pyy Pzz Pxy Pxz Pyz Lx Ly Lz Volume
11515            0   -5635.8428  0.012880342  -0.12137848  -0.10776532   0.26778482  0.063768545   0.30496397   -7.4617182    29.020442    29.020442    29.020442    24440.611
Loop time of 1.49062 on 1 procs for 455 steps with 768 atoms

Minimization stats:
  Stopping criterion = force tolerance
  Energy initial, next-to-last, final =
  Force two-norm initial, final = 0.0204899 8.50854e-11
  Force max component initial, final = 0.00138109 6.58897e-12
  Final line search alpha, max atom move = 1 6.58897e-12
  Iterations, force evaluations = 455 910

# Obtain new stress tensor

variable tmp equal pe
variable e1 equal -5635.84279631768
variable tmp equal press
variable p1 equal -3.04851538937722e-05
variable tmp equal pxx
variable pxx1 equal -1.78745537530229e-05
variable tmp equal pyy
variable pyy1 equal -7.48603326948398e-05
variable tmp equal pzz
variable pzz1 equal 1.27942476654594e-06
variable tmp equal pxy
variable pxy1 equal -3.75483529651991e-10
variable tmp equal pxz
variable pxz1 equal -2.02267980593961e-11
variable tmp equal pyz
variable pyz1 equal -4.31492760982248

# Compute elastic constant from pressure tensor

variable C1pos equal 0.000178758670356341
variable C2pos equal 0.000748617671187781
variable C3pos equal -1.2780632290335e-05
variable C4pos equal 43.1492760965097
variable C5pos equal 3.61854668870543e-09
variable C6pos equal 6.01856605057006e-09

# Combine positive and negative

variable C14 equal 0.5*(-0.000178767802643869+0.000178758670356341)
variable C24 equal 0.5*(-0.000748614403028396+0.000748617671187781)
variable C34 equal 0.5*(1.27869168907495e-05+-1.2780632290335e-05)
variable C44 equal 0.5*(43.1492760813403+43.1492760965097)
variable C54 equal 0.5*(5.22505356933721e-09+3.61854668870543e-09)
variable C64 equal 0.5*(-3.75512641415803e-09+6.01856605057006e-09)

# Delete dir to make sure it is not reused

variable dir delete

# uxz Perturbation

variable dir equal 5
include displace.mod
# NOTE: This script should not need to be
# modified. See in.elastic for more info.
#
# Find which reference length to use

variable len0 equal 29.0204418048016

# Reset box and simulation parameters

clear
box tilt large
read_restart restart.equil
  triclinic box = (-14.5102 -14.5102 -14.5102) to (14.5102 14.5102 14.5102) with tilt (0 0 0)
  768 atoms
include potential.mod
# NOTE: This script can be modified for different pair styles
# See in.elastic for more info.

# Choose potential
pair_style     rebo
pair_coeff     * * CH.airebo C
Reading potential file CH.airebo with DATE: 2011-10-25

#pair_style     lcbop
#pair_coeff     C.lcbop
#pair_style     tersoff
#pair_coeff     BNC.tersoff

# Setup neighbor style
neighbor 1.0 nsq
neigh_modify once no every 1 delay 0 check yes

# Setup minimization style
min_style	     cg
min_modify	     dmax 0.01 line quadratic

# Setup output
thermo		500
thermo_style custom step temp pe press pxx pyy pzz pxy pxz pyz lx ly lz vol
thermo_modify norm no

# Output
dump            1 all xtc 100 traj.xtc
dump            2 all xyz 2000 relaxed.xyz
#dump            4 all atom 10 dump.atom

# Negative deformation

variable delta equal -1.0e-5*29.0204418048016
variable deltaxy equal -1.0e-5*xy
variable deltaxz equal -1.0e-5*xz
variable deltayz equal -1.0e-5*yz
change_box all xz delta -0.000290204418048016 remap units box
  triclinic box = (-14.5102 -14.5102 -14.5102) to (14.5102 14.5102 14.5102) with tilt (0 -0.000290204 0)

# Relax atoms positions

minimize 0 1e-10 10000000 10000000
  update every 1 steps, delay 0 steps, check yes
Step Temp PotEng Press Pxx Pyy Pzz Pxy Pxz Pyz Lx Ly Lz Volume
11515            0   -5635.8428  0.012897055  -0.12137809   -0.1077192   0.26778846  0.063796619    7.8171183  0.050427984    29.020442    29.020442    29.020442    24440.611
Loop time of 1.46104 on 1 procs for 455 steps with 768 atoms

Minimization stats:
  Stopping criterion = force tolerance
  Energy initial, next-to-last, final =
  Force two-norm initial, final = 0.020866 8.93956e-11
  Force max component initial, final = 0.00130223 8.09983e-12
  Final line search alpha, max atom move = 1 8.09983e-12
  Iterations, force evaluations = 455 910

# Obtain new stress tensor

variable tmp equal pxx
variable pxx1 equal -7.48760067232043e-05
variable tmp equal pyy
variable pyy1 equal -1.78585089717903e-05
variable tmp equal pzz
variable pzz1 equal 1.27918277499548e-06
variable tmp equal pxy
variable pxy1 equal -8.31723092119505e-10
variable tmp equal pxz
variable pxz1 equal 4.31492761047886
variable tmp equal pyz
variable pyz1 equal 1.98723591855297e-09

# Compute elastic constant from pressure tensor

variable C1neg equal -0.000748773200058155
variable C2neg equal -0.000178599433957286
variable C3neg equal 1.27782123748304e-05
variable C4neg equal 2.15874202929313e-08
variable C5neg equal 43.1492761013723
variable C6neg equal -1.05809616752452e-08

# Reset box and simulation parameters

clear
box tilt large
read_restart restart.equil
  triclinic box = (-14.5102 -14.5102 -14.5102) to (14.5102 14.5102 14.5102) with tilt (0 0 0)
  768 atoms
include potential.mod
# NOTE: This script can be modified for different pair styles
# See in.elastic for more info.

# Choose potential
pair_style     rebo
pair_coeff     * * CH.airebo C
Reading potential file CH.airebo with DATE: 2011-10-25

#pair_style     lcbop
#pair_coeff     C.lcbop
#pair_style     tersoff
#pair_coeff     BNC.tersoff

# Setup neighbor style
neighbor 1.0 nsq
neigh_modify once no every 1 delay 0 check yes

# Setup minimization style
min_style	     cg
min_modify	     dmax 0.01 line quadratic

# Setup output
thermo		500
thermo_style custom step temp pe press pxx pyy pzz pxy pxz pyz lx ly lz vol
thermo_modify norm no

# Output
dump            1 all xtc 100 traj.xtc
dump            2 all xyz 2000 relaxed.xyz
#dump            4 all atom 10 dump.atom

# Positive deformation

variable delta equal 1.0e-5*29.0204418048016
variable deltaxy equal 1.0e-5*xy
variable deltaxz equal 1.0e-5*xz
variable deltayz equal 1.0e-5*yz
change_box all xz delta 0.000290204418048016 remap units box
  triclinic box = (-14.5102 -14.5102 -14.5102) to (14.5102 14.5102 14.5102) with tilt (0 0.000290204 0)

# Relax atoms positions

minimize 0 1e-10 10000000 10000000
  update every 1 steps, delay 0 steps, check yes
Step Temp PotEng Press Pxx Pyy Pzz Pxy Pxz Pyz Lx Ly Lz Volume
11515            0   -5635.8428   0.01286725  -0.12137982   -0.1077778   0.26775936  0.063790724   -7.2071972  0.050434851    29.020442    29.020442    29.020442    24440.611
Loop time of 1.46268 on 1 procs for 455 steps with 768 atoms

Minimization stats:
  Stopping criterion = force tolerance
  Energy initial, next-to-last, final =
  Force two-norm initial, final = 0.0202122 8.83181e-11
  Force max component initial, final = 0.00152719 9.93611e-12
  Final line search alpha, max atom move = 1 9.93611e-12
  Iterations, force evaluations = 455 910

# Obtain new stress tensor

variable tmp equal pe
variable e1 equal -5635.84279631767
variable tmp equal press
variable p1 equal -3.04850960052813e-05
variable tmp equal pxx
variable pxx1 equal -7.48760859363136e-05
variable tmp equal pyy
variable pyy1 equal -1.78586068237064e-05
variable tmp equal pzz
variable pzz1 equal 1.27940474417611e-06
variable tmp equal pxy
variable pxy1 equal 2.89370932294991e-11
variable tmp equal pxz
variable pxz1 equal -4.31492760978688
variable tmp equal pyz
variable pyz1 equal -1.09442421895939e-09

# Compute elastic constant from pressure tensor

variable C1pos equal 0.000748773992189248
variable C2pos equal 0.000178600412476447
variable C3pos equal -1.27804320666367e-05
variable C4pos equal 9.22918108219227e-09
variable C5pos equal 43.1492761012851
variable C6pos equal 1.97435982175516e-09

# Combine positive and negative

variable C15 equal 0.5*(-0.000748773200058155+0.000748773992189248)
variable C25 equal 0.5*(-0.000178599433957286+0.000178600412476447)
variable C35 equal 0.5*(1.27782123748304e-05+-1.27804320666367e-05)
variable C45 equal 0.5*(2.15874202929313e-08+9.22918108219227e-09)
variable C55 equal 0.5*(43.1492761013723+43.1492761012851)
variable C65 equal 0.5*(-1.05809616752452e-08+1.97435982175516e-09)

# Delete dir to make sure it is not reused

variable dir delete

# uxy Perturbation

variable dir equal 6
include displace.mod
# NOTE: This script should not need to be
# modified. See in.elastic for more info.
#
# Find which reference length to use

variable len0 equal 29.0204418048036

# Reset box and simulation parameters

clear
box tilt large
read_restart restart.equil
  triclinic box = (-14.5102 -14.5102 -14.5102) to (14.5102 14.5102 14.5102) with tilt (0 0 0)
  768 atoms
include potential.mod
# NOTE: This script can be modified for different pair styles
# See in.elastic for more info.

# Choose potential
pair_style     rebo
pair_coeff     * * CH.airebo C
Reading potential file CH.airebo with DATE: 2011-10-25

#pair_style     lcbop
#pair_coeff     C.lcbop
#pair_style     tersoff
#pair_coeff     BNC.tersoff

# Setup neighbor style
neighbor 1.0 nsq
neigh_modify once no every 1 delay 0 check yes

# Setup minimization style
min_style	     cg
min_modify	     dmax 0.01 line quadratic

# Setup output
thermo		500
thermo_style custom step temp pe press pxx pyy pzz pxy pxz pyz lx ly lz vol
thermo_modify norm no

# Output
dump            1 all xtc 100 traj.xtc
dump            2 all xyz 2000 relaxed.xyz
#dump            4 all atom 10 dump.atom

# Negative deformation

variable delta equal -1.0e-5*29.0204418048036
variable deltaxy equal -1.0e-5*xy
variable deltaxz equal -1.0e-5*xz
variable deltayz equal -1.0e-5*yz
change_box all xy delta -0.000290204418048036 remap units box
  triclinic box = (-14.5102 -14.5102 -14.5102) to (14.5102 14.5102 14.5102) with tilt (-0.000290204 0 0)

# Relax atoms positions

minimize 0 1e-10 10000000 10000000
  update every 1 steps, delay 0 steps, check yes
Step Temp PotEng Press Pxx Pyy Pzz Pxy Pxz Pyz Lx Ly Lz Volume
11515            0   -5635.8428   0.01288496  -0.12139951   -0.1076283   0.26768269    7.5759478   0.30496348  0.050459593    29.020442    29.020442    29.020442    24440.611
Loop time of 1.47157 on 1 procs for 455 steps with 768 atoms

Minimization stats:
  Stopping criterion = force tolerance
  Energy initial, next-to-last, final =
  Force two-norm initial, final = 0.0205659 8.9206e-11
  Force max component initial, final = 0.00142909 6.235e-12
  Final line search alpha, max atom move = 1 6.235e-12
  Iterations, force evaluations = 455 910

# Obtain new stress tensor

variable tmp equal pxx
variable pxx1 equal -7.48756942520874e-05
variable tmp equal pyy
variable pyy1 equal 1.26152755006455e-06
variable tmp equal pzz
variable pzz1 equal -1.78410366487571e-05
variable tmp equal pxy
variable pxy1 equal 4.31492760943146
variable tmp equal pxz
variable pxz1 equal -1.04557705430947e-09
variable tmp equal pyz
variable pyz1 equal 9.4308458610684e-10

# Compute elastic constant from pressure tensor

variable C1neg equal -0.000748770075346986
variable C2neg equal 1.26009312612622e-05
variable C3neg equal -0.000178423981862695
variable C4neg equal 1.114590696847e-08
variable C5neg equal -1.38720492512062e-08
variable C6neg equal 43.1492760920509

# Reset box and simulation parameters

clear
box tilt large
read_restart restart.equil
  triclinic box = (-14.5102 -14.5102 -14.5102) to (14.5102 14.5102 14.5102) with tilt (0 0 0)
  768 atoms
include potential.mod
# NOTE: This script can be modified for different pair styles
# See in.elastic for more info.

# Choose potential
pair_style     rebo
pair_coeff     * * CH.airebo C
Reading potential file CH.airebo with DATE: 2011-10-25

#pair_style     lcbop
#pair_coeff     C.lcbop
#pair_style     tersoff
#pair_coeff     BNC.tersoff

# Setup neighbor style
neighbor 1.0 nsq
neigh_modify once no every 1 delay 0 check yes

# Setup minimization style
min_style	     cg
min_modify	     dmax 0.01 line quadratic

# Setup output
thermo		500
thermo_style custom step temp pe press pxx pyy pzz pxy pxz pyz lx ly lz vol
thermo_modify norm no

# Output
dump            1 all xtc 100 traj.xtc
dump            2 all xyz 2000 relaxed.xyz
#dump            4 all atom 10 dump.atom

# Positive deformation

variable delta equal 1.0e-5*29.0204418048036
variable deltaxy equal 1.0e-5*xy
variable deltaxz equal 1.0e-5*xz
variable deltayz equal 1.0e-5*yz
change_box all xy delta 0.000290204418048036 remap units box
  triclinic box = (-14.5102 -14.5102 -14.5102) to (14.5102 14.5102 14.5102) with tilt (0.000290204 0 0)

# Relax atoms positions

minimize 0 1e-10 10000000 10000000
  update every 1 steps, delay 0 steps, check yes
Step Temp PotEng Press Pxx Pyy Pzz Pxy Pxz Pyz Lx Ly Lz Volume
11515            0   -5635.8428  0.012879345  -0.12135839  -0.10768461   0.26768104   -7.4483605   0.30495759  0.050403241    29.020442    29.020442    29.020442    24440.611
Loop time of 1.52114 on 1 procs for 455 steps with 768 atoms

Minimization stats:
  Stopping criterion = force tolerance
  Energy initial, next-to-last, final =
  Force two-norm initial, final = 0.0205174 8.65801e-11
  Force max component initial, final = 0.00127446 6.95918e-12
  Final line search alpha, max atom move = 1 6.95918e-12
  Iterations, force evaluations = 455 910

# Obtain new stress tensor

variable tmp equal pe
variable e1 equal -5635.84279631767
variable tmp equal press
variable p1 equal -3.04851858652353e-05
variable tmp equal pxx
variable pxx1 equal -7.48765456256201e-05
variable tmp equal pyy
variable pyy1 equal 1.26253991165113e-06
variable tmp equal pzz
variable pzz1 equal -1.7841551881737e-05
variable tmp equal pxy
variable pxy1 equal -4.31492760958339
variable tmp equal pxz
variable pxz1 equal -2.16113198430626e-10
variable tmp equal pyz
variable pyz1 equal -6.66759222338093e-10

# Compute elastic constant from pressure tensor

variable C1pos equal 0.000748778589082313
variable C2pos equal -1.2611054877128e-05
variable C3pos equal 0.000178429134192494
variable C4pos equal 4.9525311159793e-09
variable C5pos equal 5.57741069241773e-09
variable C6pos equal 43.1492760980976

# Combine positive and negative

variable C16 equal 0.5*(-0.000748770075346986+0.000748778589082313)
variable C26 equal 0.5*(1.26009312612622e-05+-1.2611054877128e-05)
variable C36 equal 0.5*(-0.000178423981862695+0.000178429134192494)
variable C46 equal 0.5*(1.114590696847e-08+4.9525311159793e-09)
variable C56 equal 0.5*(-1.38720492512062e-08+5.57741069241773e-09)
variable C66 equal 0.5*(43.1492760920509+43.1492760980976)

# Delete dir to make sure it is not reused

variable dir delete

# Output final values

variable C11all equal 54.7449231119775
variable C22all equal 54.7449231096381
variable C33all equal 54.7449231134887

variable C12all equal 0.5*(34.3919938003319+34.3919937994343)
variable C13all equal 0.5*(34.3919938018883+34.391993805637)
variable C23all equal 0.5*(34.3919938040596+34.3919938028182)

variable C44all equal 43.149276088925
variable C55all equal 43.1492761013287
variable C66all equal 43.1492760950742

variable C14all equal 0.5*(-4.56614376399876e-09+1.45130963322747e-08)
variable C15all equal 0.5*(3.96065546462085e-10+-3.46061486876085e-09)
variable C16all equal 0.5*(4.25686766348729e-09+6.95572581224255e-09)

variable C24all equal 0.5*(1.63407969246783e-09+9.49694788728651e-10)
variable C25all equal 0.5*(4.89259580494904e-10+-1.09067312607453e-08)
variable C26all equal 0.5*(-5.06180793290029e-09+1.1292095094698e-09)

variable C34all equal 0.5*(3.14230020725006e-09+2.96648910654165e-09)
variable C35all equal 0.5*(-1.10984590314963e-09+2.26726560424045e-09)
variable C36all equal 0.5*(2.57616489949999e-09+-2.7138967251381e-09)

variable C45all equal 0.5*(1.54083006875618e-08+4.42180012902132e-09)
variable C46all equal 0.5*(8.04921904222465e-09+1.13171981820601e-09)
variable C56all equal 0.5*(-4.14731927939423e-09+-4.30330092674502e-09)

# Average moduli for cubic crystals

variable C11cubic equal (54.7449231119775+54.7449231096381+54.7449231134887)/3.0
variable C12cubic equal (34.3919937998831+34.3919938037626+34.3919938034389)/3.0
variable C44cubic equal (43.149276088925+43.1492761013287+43.1492760950742)/3.0

variable bulkmodulus equal (54.7449231117014+2*34.3919938023615)/3.0
variable shearmodulus1 equal 43.1492760951093
variable shearmodulus2 equal (54.7449231117014-34.3919938023615)/2.0
variable poissonratio equal 1.0/(1.0+54.7449231117014/34.3919938023615)

# For Stillinger-Weber silicon, the analytical results
# are known to be (E. R. Cowley, 1988):
#               C11 = 151.4 GPa
#               C12 = 76.4 GPa
#               C44 = 56.4 GPa

print "========================================="
=========================================
print "Components of the Elastic Constant Tensor"
Components of the Elastic Constant Tensor
print "========================================="
=========================================

Elastic Constant C11all = 54.7449231119775 GPa
Elastic Constant C22all = 54.7449231096381 GPa
Elastic Constant C33all = 54.7449231134887 GPa

Elastic Constant C12all = 34.3919937998831 GPa
Elastic Constant C13all = 34.3919938037626 GPa
Elastic Constant C23all = 34.3919938034389 GPa

Elastic Constant C44all = 43.149276088925 GPa
Elastic Constant C55all = 43.1492761013287 GPa
Elastic Constant C66all = 43.1492760950742 GPa

Elastic Constant C14all = 4.97347628413797e-09 GPa
Elastic Constant C15all = -1.53227466114938e-09 GPa
Elastic Constant C16all = 5.60629673786492e-09 GPa

Elastic Constant C24all = 1.29188724059824e-09 GPa
Elastic Constant C25all = -5.2087358401252e-09 GPa
Elastic Constant C26all = -1.96629921171525e-09 GPa

Elastic Constant C34all = 3.05439465689585e-09 GPa
Elastic Constant C35all = 5.7870985054541e-10 GPa
Elastic Constant C36all = -6.88659128190551e-11 GPa

Elastic Constant C45all = 9.91505040829156e-09 GPa
Elastic Constant C46all = 4.59046943021533e-09 GPa
Elastic Constant C56all = -4.22531010306963e-09 GPa

print "========================================="
=========================================
print "Average properties for a cubic crystal"
Average properties for a cubic crystal
print "========================================="
=========================================

Bulk Modulus = 41.1763035721415 GPa
Shear Modulus 1 = 43.1492760951093 GPa
Shear Modulus 2 = 10.1764646546699 GPa
Poisson Ratio = 0.385833333628971
Deformation size: 1.0e-5

print "Lattice_type	lattice_constant	bulk_modulus	poisson	     c11	     c12         c44	" file elastic_constants.out
Lattice_type	lattice_constant	bulk_modulus	poisson	     c11	     c12         c44
sc    10.0    41.1763035721415     0.385833333628971     54.7449231119775     34.3919937998831     43.149276088925
