read_data       P8-3_D3_1.xyz
  orthogonal box = (-14.6036 -14.6036 -14.6036) to (14.6036 14.6036 14.6036)
  reading atoms ...
  768 atoms
change_box 	all triclinic
  triclinic box = (-14.6036 -14.6036 -14.6036) to (14.6036 14.6036 14.6036) with tilt (0 0 0)

include potential.mod
# NOTE: This script can be modified for different pair styles
# See in.elastic for more info.

# Choose potential
pair_style     rebo
pair_coeff     * * CH.airebo C
Reading potential file CH.airebo with DATE: 2011-10-25

#pair_style     lcbop
#pair_coeff     C.lcbop
#pair_style     tersoff
#pair_coeff     BNC.tersoff

# Setup neighbor style
neighbor 1.0 nsq
neigh_modify once no every 1 delay 0 check yes

# Setup minimization style
min_style	     cg
min_modify	     dmax 0.01 line quadratic

# Setup output
thermo		500
thermo_style custom step temp pe press pxx pyy pzz pxy pxz pyz lx ly lz vol
thermo_modify norm no

# Output
dump            1 all xtc 100 traj.xtc
dump            2 all xyz 2000 relaxed.xyz
#dump            4 all atom 10 dump.atom

# Compute initial state
fix 3 all box/relax  aniso 0.0
minimize 0 1e-10 10000000 10000000
  update every 1 steps, delay 0 steps, check yes
Step Temp PotEng Press Pxx Pyy Pzz Pxy Pxz Pyz Lx Ly Lz Volume
0            0   -4188.2385    192109.84    192109.87    192109.79    192109.87  -0.01847026 0.0092455014 0.0039250023     29.20716     29.20716     29.20716    24915.407
Averages over the last 35 of 69 rows, steps 17000 to 33971:
Temp PotEng Press Pxx Pyy Pzz Pxy Pxz Pyz Lx Ly Lz Volume
0 -5513.34 7.21109 17.1152 7.2452 -2.72716 0.0028034 0.00133834 0.00196849 28.6036 28.6037 28.604 23406.6
Loop time of 81.6328 on 1 procs for 33971 steps with 768 atoms

Minimization stats:
  Stopping criterion = force tolerance
  Energy initial, next-to-last, final =
  Force two-norm initial, final = 5594.95 7.44045e-11
  Force max component initial, final = 2987.5 1.49231e-11
  Final line search alpha, max atom move = 1 1.49231e-11
  Iterations, force evaluations = 33971 45217

#dump rel all xyz 10 relaxed-*.xyz
#dump 3 all xyz 10 relaxed.xyz
#dump 3 all atom 10 dump.atom

variable tmp equal pxx
variable pxx0 equal -7.0687853526292e-10
variable tmp equal pyy
variable pyy0 equal 4.57714514316933e-10
variable tmp equal pzz
variable pzz0 equal 6.14938493729526e-10
variable tmp equal pyz
variable pyz0 equal 3.5420678933921e-08
variable tmp equal pxz
variable pxz0 equal -6.9792076519314e-09
variable tmp equal pxy
variable pxy0 equal -2.18242384517828e-08

variable tmp equal lx
variable lx0 equal 28.3505144567375
variable tmp equal ly
variable ly0 equal 28.3505144567224
variable tmp equal lz
variable lz0 equal 28.3505144567311

# These formulas define the derivatives w.r.t. strain components
# Constants uses $, variables use v_
variable d1 equal -(v_pxx1--7.0687853526292e-10)/(v_delta/v_len0)*0.0001
variable d2 equal -(v_pyy1-4.57714514316933e-10)/(v_delta/v_len0)*0.0001
variable d3 equal -(v_pzz1-6.14938493729526e-10)/(v_delta/v_len0)*0.0001
variable d4 equal -(v_pyz1-3.5420678933921e-08)/(v_delta/v_len0)*0.0001
variable d5 equal -(v_pxz1--6.9792076519314e-09)/(v_delta/v_len0)*0.0001
variable d6 equal -(v_pxy1--2.18242384517828e-08)/(v_delta/v_len0)*0.0001

displace_atoms all random 1e-05 1e-05 1e-05 87287 units box

# Write restart
unfix 3
write_restart restart.equil

# uxx Perturbation

variable dir equal 1
include displace.mod
# NOTE: This script should not need to be
# modified. See in.elastic for more info.
#
# Find which reference length to use

variable len0 equal 28.3505144567375

# Reset box and simulation parameters

clear
box tilt large
read_restart restart.equil
  triclinic box = (-14.1753 -14.1753 -14.1753) to (14.1753 14.1753 14.1753) with tilt (0 0 0)
  768 atoms
include potential.mod
# NOTE: This script can be modified for different pair styles
# See in.elastic for more info.

# Choose potential
pair_style     rebo
pair_coeff     * * CH.airebo C
Reading potential file CH.airebo with DATE: 2011-10-25

#pair_style     lcbop
#pair_coeff     C.lcbop
#pair_style     tersoff
#pair_coeff     BNC.tersoff

# Setup neighbor style
neighbor 1.0 nsq
neigh_modify once no every 1 delay 0 check yes

# Setup minimization style
min_style	     cg
min_modify	     dmax 0.01 line quadratic

# Setup output
thermo		500
thermo_style custom step temp pe press pxx pyy pzz pxy pxz pyz lx ly lz vol
thermo_modify norm no

# Output
dump            1 all xtc 100 traj.xtc
dump            2 all xyz 2000 relaxed.xyz
#dump            4 all atom 10 dump.atom

# Negative deformation

variable delta equal -1.0e-5*28.3505144567375
variable deltaxy equal -1.0e-5*xy
variable deltaxz equal -1.0e-5*xz
variable deltayz equal -1.0e-5*yz
change_box all x delta 0 -0.000283505144567375 xy delta -0 xz delta -0 remap units box
  triclinic box = (-14.1753 -14.1753 -14.1753) to (14.175 14.1753 14.1753) with tilt (0 0 0)
  triclinic box = (-14.1753 -14.1753 -14.1753) to (14.175 14.1753 14.1753) with tilt (0 0 0)
  triclinic box = (-14.1753 -14.1753 -14.1753) to (14.175 14.1753 14.1753) with tilt (0 0 0)

# Relax atoms positions

minimize 0 1e-10 10000000 10000000
  update every 1 steps, delay 0 steps, check yes
Step Temp PotEng Press Pxx Pyy Pzz Pxy Pxz Pyz Lx Ly Lz Volume
33971            0   -5516.3541    7.6505872    16.394045    3.1080904    3.4496265   0.03268855  0.034315087   0.34898101    28.350231    28.350514    28.350514    22786.545
Loop time of 1.1061 on 1 procs for 342 steps with 768 atoms

Minimization stats:
  Stopping criterion = force tolerance
  Energy initial, next-to-last, final =
  Force two-norm initial, final = 0.020967 9.37792e-11
  Force max component initial, final = 0.00174308 8.32856e-12
  Final line search alpha, max atom move = 1 8.32856e-12
  Iterations, force evaluations = 342 684

# Obtain new stress tensor

variable tmp equal pxx
variable pxx1 equal 2.50630779700033
variable tmp equal pyy
variable pyy1 equal 0.596993271099017
variable tmp equal pzz
variable pzz1 equal 0.596994485804816
variable tmp equal pxy
variable pxy1 equal -9.62169284344687e-09
variable tmp equal pxz
variable pxz1 equal -2.26834235376266e-08
variable tmp equal pyz
variable pyz1 equal 3.38085442482308e-08

# Compute elastic constant from pressure tensor

variable C1neg equal 25.0630779770721
variable C2neg equal 5.96993270641303
variable C3neg equal 5.96994485189877
variable C4neg equal -1.6121346856902e-08
variable C5neg equal -1.57042158856952e-07
variable C6neg equal 1.22025456083359e-07

# Reset box and simulation parameters

clear
box tilt large
read_restart restart.equil
  triclinic box = (-14.1753 -14.1753 -14.1753) to (14.1753 14.1753 14.1753) with tilt (0 0 0)
  768 atoms
include potential.mod
# NOTE: This script can be modified for different pair styles
# See in.elastic for more info.

# Choose potential
pair_style     rebo
pair_coeff     * * CH.airebo C
Reading potential file CH.airebo with DATE: 2011-10-25

#pair_style     lcbop
#pair_coeff     C.lcbop
#pair_style     tersoff
#pair_coeff     BNC.tersoff

# Setup neighbor style
neighbor 1.0 nsq
neigh_modify once no every 1 delay 0 check yes

# Setup minimization style
min_style	     cg
min_modify	     dmax 0.01 line quadratic

# Setup output
thermo		500
thermo_style custom step temp pe press pxx pyy pzz pxy pxz pyz lx ly lz vol
thermo_modify norm no

# Output
dump            1 all xtc 100 traj.xtc
dump            2 all xyz 2000 relaxed.xyz
#dump            4 all atom 10 dump.atom

# Positive deformation

variable delta equal 1.0e-5*28.3505144567375
variable deltaxy equal 1.0e-5*xy
variable deltaxz equal 1.0e-5*xz
variable deltayz equal 1.0e-5*yz
change_box all x delta 0 0.000283505144567375 xy delta 0 xz delta 0 remap units box
  triclinic box = (-14.1753 -14.1753 -14.1753) to (14.1755 14.1753 14.1753) with tilt (0 0 0)
  triclinic box = (-14.1753 -14.1753 -14.1753) to (14.1755 14.1753 14.1753) with tilt (0 0 0)
  triclinic box = (-14.1753 -14.1753 -14.1753) to (14.1755 14.1753 14.1753) with tilt (0 0 0)

# Relax atoms positions

minimize 0 1e-10 10000000 10000000
  update every 1 steps, delay 0 steps, check yes
Step Temp PotEng Press Pxx Pyy Pzz Pxy Pxz Pyz Lx Ly Lz Volume
33971            0   -5516.3541   -7.7959061   -16.687974    -3.520646   -3.1790985  0.032655746  0.034298617   0.34893607    28.350798    28.350514    28.350514    22787.001
Loop time of 1.11259 on 1 procs for 342 steps with 768 atoms

Minimization stats:
  Stopping criterion = force tolerance
  Energy initial, next-to-last, final =
  Force two-norm initial, final = 0.0211164 9.31345e-11
  Force max component initial, final = 0.00154286 9.02142e-12
  Final line search alpha, max atom move = 1 9.02142e-12
  Iterations, force evaluations = 342 684

# Obtain new stress tensor

variable tmp equal pe
variable e1 equal -5516.35407767004
variable tmp equal press
variable p1 equal -1.23351487061702
variable tmp equal pxx
variable pxx1 equal -2.50642712712736
variable tmp equal pyy
variable pyy1 equal -0.597059350080303
variable tmp equal pzz
variable pzz1 equal -0.59705813464341
variable tmp equal pxy
variable pxy1 equal -1.01221721267351e-08
variable tmp equal pxz
variable pxz1 equal -1.99163831986857e-08
variable tmp equal pyz
variable pyz1 equal 3.30000317068112e-08

# Compute elastic constant from pressure tensor

variable C1pos equal 25.0642712642048
variable C2pos equal 5.97059350538018
variable C3pos equal 5.97058135258349
variable C4pos equal 2.4206472271098e-08
variable C5pos equal 1.29371755467543e-07
variable C6pos equal -1.17020663250477e-07

# Combine positive and negative

variable C11 equal 0.5*(25.0630779770721+25.0642712642048)
variable C21 equal 0.5*(5.96993270641303+5.97059350538018)
variable C31 equal 0.5*(5.96994485189877+5.97058135258349)
variable C41 equal 0.5*(-1.6121346856902e-08+2.4206472271098e-08)
variable C51 equal 0.5*(-1.57042158856952e-07+1.29371755467543e-07)
variable C61 equal 0.5*(1.22025456083359e-07+-1.17020663250477e-07)

# Delete dir to make sure it is not reused

variable dir delete

# uyy Perturbation

variable dir equal 2
include displace.mod
# NOTE: This script should not need to be
# modified. See in.elastic for more info.
#
# Find which reference length to use

variable len0 equal 28.3505144567224

# Reset box and simulation parameters

clear
box tilt large
read_restart restart.equil
  triclinic box = (-14.1753 -14.1753 -14.1753) to (14.1753 14.1753 14.1753) with tilt (0 0 0)
  768 atoms
include potential.mod
# NOTE: This script can be modified for different pair styles
# See in.elastic for more info.

# Choose potential
pair_style     rebo
pair_coeff     * * CH.airebo C
Reading potential file CH.airebo with DATE: 2011-10-25

#pair_style     lcbop
#pair_coeff     C.lcbop
#pair_style     tersoff
#pair_coeff     BNC.tersoff

# Setup neighbor style
neighbor 1.0 nsq
neigh_modify once no every 1 delay 0 check yes

# Setup minimization style
min_style	     cg
min_modify	     dmax 0.01 line quadratic

# Setup output
thermo		500
thermo_style custom step temp pe press pxx pyy pzz pxy pxz pyz lx ly lz vol
thermo_modify norm no

# Output
dump            1 all xtc 100 traj.xtc
dump            2 all xyz 2000 relaxed.xyz
#dump            4 all atom 10 dump.atom

# Negative deformation

variable delta equal -1.0e-5*28.3505144567224
variable deltaxy equal -1.0e-5*xy
variable deltaxz equal -1.0e-5*xz
variable deltayz equal -1.0e-5*yz
change_box all y delta 0 -0.000283505144567224 yz delta -0 remap units box
  triclinic box = (-14.1753 -14.1753 -14.1753) to (14.1753 14.175 14.1753) with tilt (0 0 0)
  triclinic box = (-14.1753 -14.1753 -14.1753) to (14.1753 14.175 14.1753) with tilt (0 0 0)

# Relax atoms positions

minimize 0 1e-10 10000000 10000000
  update every 1 steps, delay 0 steps, check yes
Step Temp PotEng Press Pxx Pyy Pzz Pxy Pxz Pyz Lx Ly Lz Volume
33971            0   -5516.3541    7.6505855    3.1669728    16.335129    3.4496544  0.032656372  0.034309043   0.34896609    28.350514    28.350231    28.350514    22786.545
Loop time of 1.11849 on 1 procs for 341 steps with 768 atoms

Minimization stats:
  Stopping criterion = force tolerance
  Energy initial, next-to-last, final =
  Force two-norm initial, final = 0.0209373 9.93138e-11
  Force max component initial, final = 0.00175157 7.89664e-12
  Final line search alpha, max atom move = 1 7.89664e-12
  Iterations, force evaluations = 341 682

# Obtain new stress tensor

variable tmp equal pxx
variable pxx1 equal 0.596994447964376
variable tmp equal pyy
variable pyy1 equal 2.50630789540699
variable tmp equal pzz
variable pzz1 equal 0.596993217195188
variable tmp equal pxy
variable pxy1 equal -9.65037493387021e-09
variable tmp equal pxz
variable pxz1 equal -2.05140801599274e-08
variable tmp equal pyz
variable pyz1 equal 3.32021708604906e-08

# Compute elastic constant from pressure tensor

variable C1neg equal 5.96994448671255
variable C2neg equal 25.0630789494928
variable C3neg equal 5.9699321658025
variable C4neg equal -2.2185080734304e-08
variable C5neg equal -1.3534872507996e-07
variable C6neg equal 1.21738635179126e-07

# Reset box and simulation parameters

clear
box tilt large
read_restart restart.equil
  triclinic box = (-14.1753 -14.1753 -14.1753) to (14.1753 14.1753 14.1753) with tilt (0 0 0)
  768 atoms
include potential.mod
# NOTE: This script can be modified for different pair styles
# See in.elastic for more info.

# Choose potential
pair_style     rebo
pair_coeff     * * CH.airebo C
Reading potential file CH.airebo with DATE: 2011-10-25

#pair_style     lcbop
#pair_coeff     C.lcbop
#pair_style     tersoff
#pair_coeff     BNC.tersoff

# Setup neighbor style
neighbor 1.0 nsq
neigh_modify once no every 1 delay 0 check yes

# Setup minimization style
min_style	     cg
min_modify	     dmax 0.01 line quadratic

# Setup output
thermo		500
thermo_style custom step temp pe press pxx pyy pzz pxy pxz pyz lx ly lz vol
thermo_modify norm no

# Output
dump            1 all xtc 100 traj.xtc
dump            2 all xyz 2000 relaxed.xyz
#dump            4 all atom 10 dump.atom

# Positive deformation

variable delta equal 1.0e-5*28.3505144567224
variable deltaxy equal 1.0e-5*xy
variable deltaxz equal 1.0e-5*xz
variable deltayz equal 1.0e-5*yz
change_box all y delta 0 0.000283505144567224 yz delta 0 remap units box
  triclinic box = (-14.1753 -14.1753 -14.1753) to (14.1753 14.1755 14.1753) with tilt (0 0 0)
  triclinic box = (-14.1753 -14.1753 -14.1753) to (14.1753 14.1755 14.1753) with tilt (0 0 0)

# Relax atoms positions

minimize 0 1e-10 10000000 10000000
  update every 1 steps, delay 0 steps, check yes
Step Temp PotEng Press Pxx Pyy Pzz Pxy Pxz Pyz Lx Ly Lz Volume
33971            0   -5516.3541   -7.7959043   -3.4617648   -16.746863   -3.1790852  0.032687921  0.034304661   0.34895099    28.350514    28.350798    28.350514    22787.001
Loop time of 1.15354 on 1 procs for 342 steps with 768 atoms

Minimization stats:
  Stopping criterion = force tolerance
  Energy initial, next-to-last, final =
  Force two-norm initial, final = 0.0211458 9.41356e-11
  Force max component initial, final = 0.00206078 8.96212e-12
  Final line search alpha, max atom move = 1 8.96212e-12
  Iterations, force evaluations = 342 684

# Obtain new stress tensor

variable tmp equal pe
variable e1 equal -5516.35407767003
variable tmp equal press
variable p1 equal -1.23351487106456
variable tmp equal pxx
variable pxx1 equal -0.597058178408552
variable tmp equal pyy
variable pyy1 equal -2.50642702425978
variable tmp equal pzz
variable pzz1 equal -0.597059410525359
variable tmp equal pxy
variable pxy1 equal -9.51900648338834e-09
variable tmp equal pxz
variable pxz1 equal -2.10444682163729e-08
variable tmp equal pyz
variable pyz1 equal 3.32776630128072e-08

# Compute elastic constant from pressure tensor

variable C1pos equal 5.97058177701674
variable C2pos equal 25.0642702471749
variable C3pos equal 5.97059411140298
variable C4pos equal 2.1430159211138e-08
variable C5pos equal 1.40652605644415e-07
variable C6pos equal -1.23052319683945e-07

# Combine positive and negative

variable C12 equal 0.5*(5.96994448671255+5.97058177701674)
variable C22 equal 0.5*(25.0630789494928+25.0642702471749)
variable C32 equal 0.5*(5.9699321658025+5.97059411140298)
variable C42 equal 0.5*(-2.2185080734304e-08+2.1430159211138e-08)
variable C52 equal 0.5*(-1.3534872507996e-07+1.40652605644415e-07)
variable C62 equal 0.5*(1.21738635179126e-07+-1.23052319683945e-07)

# Delete dir to make sure it is not reused

variable dir delete

# uzz Perturbation

variable dir equal 3
include displace.mod
# NOTE: This script should not need to be
# modified. See in.elastic for more info.
#
# Find which reference length to use

variable len0 equal 28.3505144567311

# Reset box and simulation parameters

clear
box tilt large
read_restart restart.equil
  triclinic box = (-14.1753 -14.1753 -14.1753) to (14.1753 14.1753 14.1753) with tilt (0 0 0)
  768 atoms
include potential.mod
# NOTE: This script can be modified for different pair styles
# See in.elastic for more info.

# Choose potential
pair_style     rebo
pair_coeff     * * CH.airebo C
Reading potential file CH.airebo with DATE: 2011-10-25

#pair_style     lcbop
#pair_coeff     C.lcbop
#pair_style     tersoff
#pair_coeff     BNC.tersoff

# Setup neighbor style
neighbor 1.0 nsq
neigh_modify once no every 1 delay 0 check yes

# Setup minimization style
min_style	     cg
min_modify	     dmax 0.01 line quadratic

# Setup output
thermo		500
thermo_style custom step temp pe press pxx pyy pzz pxy pxz pyz lx ly lz vol
thermo_modify norm no

# Output
dump            1 all xtc 100 traj.xtc
dump            2 all xyz 2000 relaxed.xyz
#dump            4 all atom 10 dump.atom

# Negative deformation

variable delta equal -1.0e-5*28.3505144567311
variable deltaxy equal -1.0e-5*xy
variable deltaxz equal -1.0e-5*xz
variable deltayz equal -1.0e-5*yz
change_box all z delta 0 -0.000283505144567311 remap units box
  triclinic box = (-14.1753 -14.1753 -14.1753) to (14.1753 14.1753 14.175) with tilt (0 0 0)

# Relax atoms positions

minimize 0 1e-10 10000000 10000000
  update every 1 steps, delay 0 steps, check yes
Step Temp PotEng Press Pxx Pyy Pzz Pxy Pxz Pyz Lx Ly Lz Volume
33971            0   -5516.3541    7.6505972    3.1669842    3.1080681    16.676739  0.032672592  0.034299837   0.34898313    28.350514    28.350514    28.350231    22786.545
Loop time of 1.10065 on 1 procs for 341 steps with 768 atoms

Minimization stats:
  Stopping criterion = force tolerance
  Energy initial, next-to-last, final =
  Force two-norm initial, final = 0.021223 9.98719e-11
  Force max component initial, final = 0.00190836 7.23577e-12
  Final line search alpha, max atom move = 1 7.23577e-12
  Iterations, force evaluations = 341 682

# Obtain new stress tensor

variable tmp equal pxx
variable pxx1 equal 0.596993175607778
variable tmp equal pyy
variable pyy1 equal 0.59699454805978
variable tmp equal pzz
variable pzz1 equal 2.50630783670288
variable tmp equal pxy
variable pxy1 equal -1.07654880452869e-08
variable tmp equal pxz
variable pxz1 equal -2.15427264387019e-08
variable tmp equal pyz
variable pyz1 equal 3.21708724104645e-08

# Compute elastic constant from pressure tensor

variable C1neg equal 5.96993176314657
variable C2neg equal 5.96994547602066
variable C3neg equal 25.0630783608794
variable C4neg equal -3.2498065234565e-08
variable C5neg equal -1.45635187867705e-07
variable C6neg equal 1.10587504064959e-07

# Reset box and simulation parameters

clear
box tilt large
read_restart restart.equil
  triclinic box = (-14.1753 -14.1753 -14.1753) to (14.1753 14.1753 14.1753) with tilt (0 0 0)
  768 atoms
include potential.mod
# NOTE: This script can be modified for different pair styles
# See in.elastic for more info.

# Choose potential
pair_style     rebo
pair_coeff     * * CH.airebo C
Reading potential file CH.airebo with DATE: 2011-10-25

#pair_style     lcbop
#pair_coeff     C.lcbop
#pair_style     tersoff
#pair_coeff     BNC.tersoff

# Setup neighbor style
neighbor 1.0 nsq
neigh_modify once no every 1 delay 0 check yes

# Setup minimization style
min_style	     cg
min_modify	     dmax 0.01 line quadratic

# Setup output
thermo		500
thermo_style custom step temp pe press pxx pyy pzz pxy pxz pyz lx ly lz vol
thermo_modify norm no

# Output
dump            1 all xtc 100 traj.xtc
dump            2 all xyz 2000 relaxed.xyz
#dump            4 all atom 10 dump.atom

# Positive deformation

variable delta equal 1.0e-5*28.3505144567311
variable deltaxy equal 1.0e-5*xy
variable deltaxz equal 1.0e-5*xz
variable deltayz equal 1.0e-5*yz
change_box all z delta 0 0.000283505144567311 remap units box
  triclinic box = (-14.1753 -14.1753 -14.1753) to (14.1753 14.1753 14.1755) with tilt (0 0 0)

# Relax atoms positions

minimize 0 1e-10 10000000 10000000
  update every 1 steps, delay 0 steps, check yes
Step Temp PotEng Press Pxx Pyy Pzz Pxy Pxz Pyz Lx Ly Lz Volume
33971            0   -5516.3541   -7.7959161   -3.4617351   -3.5206647   -16.405348  0.032671702  0.034313867   0.34893394    28.350514    28.350514    28.350798    22787.001
Loop time of 1.11763 on 1 procs for 342 steps with 768 atoms

Minimization stats:
  Stopping criterion = force tolerance
  Energy initial, next-to-last, final =
  Force two-norm initial, final = 0.0208591 9.48877e-11
  Force max component initial, final = 0.00163432 9.48136e-12
  Final line search alpha, max atom move = 1 9.48136e-12
  Iterations, force evaluations = 342 684

# Obtain new stress tensor

variable tmp equal pe
variable e1 equal -5516.35407767003
variable tmp equal press
variable p1 equal -1.23351487145555
variable tmp equal pxx
variable pxx1 equal -0.597059453772952
variable tmp equal pyy
variable pyy1 equal -0.597058077764526
variable tmp equal pzz
variable pzz1 equal -2.50642708282917
variable tmp equal pxy
variable pxy1 equal -8.95992084007101e-09
variable tmp equal pxz
variable pxz1 equal -2.11653610926019e-08
variable tmp equal pyz
variable pyz1 equal 3.29823587248403e-08

# Compute elastic constant from pressure tensor

variable C1pos equal 5.97059453066074
variable C2pos equal 5.97058078222241
variable C3pos equal 25.0642708344411
variable C4pos equal 2.4383202090807e-08
variable C5pos equal 1.41861534406705e-07
variable C6pos equal -1.28643176117118e-07

# Combine positive and negative

variable C13 equal 0.5*(5.96993176314657+5.97059453066074)
variable C23 equal 0.5*(5.96994547602066+5.97058078222241)
variable C33 equal 0.5*(25.0630783608794+25.0642708344411)
variable C43 equal 0.5*(-3.2498065234565e-08+2.4383202090807e-08)
variable C53 equal 0.5*(-1.45635187867705e-07+1.41861534406705e-07)
variable C63 equal 0.5*(1.10587504064959e-07+-1.28643176117118e-07)

# Delete dir to make sure it is not reused

variable dir delete

# uyz Perturbation

variable dir equal 4
include displace.mod
# NOTE: This script should not need to be
# modified. See in.elastic for more info.
#
# Find which reference length to use

variable len0 equal 28.3505144567311

# Reset box and simulation parameters

clear
box tilt large
read_restart restart.equil
  triclinic box = (-14.1753 -14.1753 -14.1753) to (14.1753 14.1753 14.1753) with tilt (0 0 0)
  768 atoms
include potential.mod
# NOTE: This script can be modified for different pair styles
# See in.elastic for more info.

# Choose potential
pair_style     rebo
pair_coeff     * * CH.airebo C
Reading potential file CH.airebo with DATE: 2011-10-25

#pair_style     lcbop
#pair_coeff     C.lcbop
#pair_style     tersoff
#pair_coeff     BNC.tersoff

# Setup neighbor style
neighbor 1.0 nsq
neigh_modify once no every 1 delay 0 check yes

# Setup minimization style
min_style	     cg
min_modify	     dmax 0.01 line quadratic

# Setup output
thermo		500
thermo_style custom step temp pe press pxx pyy pzz pxy pxz pyz lx ly lz vol
thermo_modify norm no

# Output
dump            1 all xtc 100 traj.xtc
dump            2 all xyz 2000 relaxed.xyz
#dump            4 all atom 10 dump.atom

# Negative deformation

variable delta equal -1.0e-5*28.3505144567311
variable deltaxy equal -1.0e-5*xy
variable deltaxz equal -1.0e-5*xz
variable deltayz equal -1.0e-5*yz
change_box all yz delta -0.000283505144567311 remap units box
  triclinic box = (-14.1753 -14.1753 -14.1753) to (14.1753 14.1753 14.1753) with tilt (0 0 -0.000283505)

# Relax atoms positions

minimize 0 1e-10 10000000 10000000
  update every 1 steps, delay 0 steps, check yes
Step Temp PotEng Press Pxx Pyy Pzz Pxy Pxz Pyz Lx Ly Lz Volume
33971            0   -5516.3541 -0.072863497  -0.14746674   -0.2063918   0.13526805  0.032678208  0.034309157     8.041929    28.350514    28.350514    28.350514    22786.773
Loop time of 1.12979 on 1 procs for 349 steps with 768 atoms

Minimization stats:
  Stopping criterion = force tolerance
  Energy initial, next-to-last, final =
  Force two-norm initial, final = 0.0210715 9.43209e-11
  Force max component initial, final = 0.00159027 1.22593e-11
  Final line search alpha, max atom move = 1 1.22593e-11
  Iterations, force evaluations = 349 698

# Obtain new stress tensor

variable tmp equal pxx
variable pxx1 equal -2.77793971137811e-05
variable tmp equal pyy
variable pyy1 equal -8.92530857236111e-05
variable tmp equal pzz
variable pzz1 equal -6.30489515737807e-05
variable tmp equal pxy
variable pxy1 equal 7.28774829501156e-10
variable tmp equal pxz
variable pxz1 equal -8.57101359989267e-10
variable tmp equal pyz
variable pyz1 equal 3.11866145336216

# Compute elastic constant from pressure tensor

variable C1neg equal -0.000277786902352458
variable C2neg equal -0.000892535434381254
variable C3neg equal -0.000630495665122745
variable C4neg equal 31.1866141794148
variable C5neg equal 6.12210629194213e-08
variable C6neg equal 2.2553013281284e-07

# Reset box and simulation parameters

clear
box tilt large
read_restart restart.equil
  triclinic box = (-14.1753 -14.1753 -14.1753) to (14.1753 14.1753 14.1753) with tilt (0 0 0)
  768 atoms
include potential.mod
# NOTE: This script can be modified for different pair styles
# See in.elastic for more info.

# Choose potential
pair_style     rebo
pair_coeff     * * CH.airebo C
Reading potential file CH.airebo with DATE: 2011-10-25

#pair_style     lcbop
#pair_coeff     C.lcbop
#pair_style     tersoff
#pair_coeff     BNC.tersoff

# Setup neighbor style
neighbor 1.0 nsq
neigh_modify once no every 1 delay 0 check yes

# Setup minimization style
min_style	     cg
min_modify	     dmax 0.01 line quadratic

# Setup output
thermo		500
thermo_style custom step temp pe press pxx pyy pzz pxy pxz pyz lx ly lz vol
thermo_modify norm no

# Output
dump            1 all xtc 100 traj.xtc
dump            2 all xyz 2000 relaxed.xyz
#dump            4 all atom 10 dump.atom

# Positive deformation

variable delta equal 1.0e-5*28.3505144567311
variable deltaxy equal 1.0e-5*xy
variable deltaxz equal 1.0e-5*xz
variable deltayz equal 1.0e-5*yz
change_box all yz delta 0.000283505144567311 remap units box
  triclinic box = (-14.1753 -14.1753 -14.1753) to (14.1753 14.1753 14.1753) with tilt (0 0 0.000283505)

# Relax atoms positions

minimize 0 1e-10 10000000 10000000
  update every 1 steps, delay 0 steps, check yes
Step Temp PotEng Press Pxx Pyy Pzz Pxy Pxz Pyz Lx Ly Lz Volume
33971            0   -5516.3541 -0.072892928  -0.14750471  -0.20639294   0.13521886  0.032666086  0.034304547   -7.3440119    28.350514    28.350514    28.350514    22786.773
Loop time of 1.14445 on 1 procs for 347 steps with 768 atoms

Minimization stats:
  Stopping criterion = force tolerance
  Energy initial, next-to-last, final =
  Force two-norm initial, final = 0.0205273 9.9506e-11
  Force max component initial, final = 0.00172985 8.36753e-12
  Final line search alpha, max atom move = 1 8.36753e-12
  Iterations, force evaluations = 347 694

# Obtain new stress tensor

variable tmp equal pe
variable e1 equal -5516.35407762649
variable tmp equal press
variable p1 equal -6.00220819664444e-05
variable tmp equal pxx
variable pxx1 equal -2.77729932546787e-05
variable tmp equal pyy
variable pyy1 equal -8.92492196420837e-05
variable tmp equal pzz
variable pzz1 equal -6.30440330025708e-05
variable tmp equal pxy
variable pxy1 equal -2.22247971980513e-09
variable tmp equal pxz
variable pxz1 equal -2.71706275379665e-09
variable tmp equal pyz
variable pyz1 equal -3.11866145520591

# Compute elastic constant from pressure tensor

variable C1pos equal 0.000277722863761434
variable C2pos equal 0.00089249677356598
variable C3pos equal 0.000630446479410645
variable C4pos equal 31.1866149062659
variable C5pos equal -4.26214489813475e-08
variable C6pos equal -1.96017587319777e-07

# Combine positive and negative

variable C14 equal 0.5*(-0.000277786902352458+0.000277722863761434)
variable C24 equal 0.5*(-0.000892535434381254+0.00089249677356598)
variable C34 equal 0.5*(-0.000630495665122745+0.000630446479410645)
variable C44 equal 0.5*(31.1866141794148+31.1866149062659)
variable C54 equal 0.5*(6.12210629194213e-08+-4.26214489813475e-08)
variable C64 equal 0.5*(2.2553013281284e-07+-1.96017587319777e-07)

# Delete dir to make sure it is not reused

variable dir delete

# uxz Perturbation

variable dir equal 5
include displace.mod
# NOTE: This script should not need to be
# modified. See in.elastic for more info.
#
# Find which reference length to use

variable len0 equal 28.3505144567311

# Reset box and simulation parameters

clear
box tilt large
read_restart restart.equil
  triclinic box = (-14.1753 -14.1753 -14.1753) to (14.1753 14.1753 14.1753) with tilt (0 0 0)
  768 atoms
include potential.mod
# NOTE: This script can be modified for different pair styles
# See in.elastic for more info.

# Choose potential
pair_style     rebo
pair_coeff     * * CH.airebo C
Reading potential file CH.airebo with DATE: 2011-10-25

#pair_style     lcbop
#pair_coeff     C.lcbop
#pair_style     tersoff
#pair_coeff     BNC.tersoff

# Setup neighbor style
neighbor 1.0 nsq
neigh_modify once no every 1 delay 0 check yes

# Setup minimization style
min_style	     cg
min_modify	     dmax 0.01 line quadratic

# Setup output
thermo		500
thermo_style custom step temp pe press pxx pyy pzz pxy pxz pyz lx ly lz vol
thermo_modify norm no

# Output
dump            1 all xtc 100 traj.xtc
dump            2 all xyz 2000 relaxed.xyz
#dump            4 all atom 10 dump.atom

# Negative deformation

variable delta equal -1.0e-5*28.3505144567311
variable deltaxy equal -1.0e-5*xy
variable deltaxz equal -1.0e-5*xz
variable deltayz equal -1.0e-5*yz
change_box all xz delta -0.000283505144567311 remap units box
  triclinic box = (-14.1753 -14.1753 -14.1753) to (14.1753 14.1753 14.1753) with tilt (0 -0.000283505 0)

# Relax atoms positions

minimize 0 1e-10 10000000 10000000
  update every 1 steps, delay 0 steps, check yes
Step Temp PotEng Press Pxx Pyy Pzz Pxy Pxz Pyz Lx Ly Lz Volume
33971            0   -5516.3541 -0.072877418  -0.14749677  -0.20638622   0.13525073  0.032690585    7.7272832   0.34896084    28.350514    28.350514    28.350514    22786.773
Loop time of 1.13612 on 1 procs for 349 steps with 768 atoms

Minimization stats:
  Stopping criterion = force tolerance
  Energy initial, next-to-last, final =
  Force two-norm initial, final = 0.0208961 9.01265e-11
  Force max component initial, final = 0.00177963 7.56351e-12
  Final line search alpha, max atom move = 1 7.56351e-12
  Iterations, force evaluations = 349 698

# Obtain new stress tensor

variable tmp equal pxx
variable pxx1 equal -0.000115919509737483
variable tmp equal pyy
variable pyy1 equal -2.76952427797432e-05
variable tmp equal pzz
variable pzz1 equal -3.64627599378376e-05
variable tmp equal pxy
variable pxy1 equal 1.51300075565875e-10
variable tmp equal pxz
variable pxz1 equal 3.11866145407234
variable tmp equal pyz
variable pyz1 equal -7.21617551504834e-10

# Compute elastic constant from pressure tensor

variable C1neg equal -0.00115918802858948
variable C2neg equal -0.000276957004942575
variable C3neg equal -0.000364633748763313
variable C4neg equal -3.61422964854258e-07
variable C5neg equal 31.1866146105155
variable C6neg equal 2.19755385273487e-07

# Reset box and simulation parameters

clear
box tilt large
read_restart restart.equil
  triclinic box = (-14.1753 -14.1753 -14.1753) to (14.1753 14.1753 14.1753) with tilt (0 0 0)
  768 atoms
include potential.mod
# NOTE: This script can be modified for different pair styles
# See in.elastic for more info.

# Choose potential
pair_style     rebo
pair_coeff     * * CH.airebo C
Reading potential file CH.airebo with DATE: 2011-10-25

#pair_style     lcbop
#pair_coeff     C.lcbop
#pair_style     tersoff
#pair_coeff     BNC.tersoff

# Setup neighbor style
neighbor 1.0 nsq
neigh_modify once no every 1 delay 0 check yes

# Setup minimization style
min_style	     cg
min_modify	     dmax 0.01 line quadratic

# Setup output
thermo		500
thermo_style custom step temp pe press pxx pyy pzz pxy pxz pyz lx ly lz vol
thermo_modify norm no

# Output
dump            1 all xtc 100 traj.xtc
dump            2 all xyz 2000 relaxed.xyz
#dump            4 all atom 10 dump.atom

# Positive deformation

variable delta equal 1.0e-5*28.3505144567311
variable deltaxy equal 1.0e-5*xy
variable deltaxz equal 1.0e-5*xz
variable deltayz equal 1.0e-5*yz
change_box all xz delta 0.000283505144567311 remap units box
  triclinic box = (-14.1753 -14.1753 -14.1753) to (14.1753 14.1753 14.1753) with tilt (0 0.000283505 0)

# Relax atoms positions

minimize 0 1e-10 10000000 10000000
  update every 1 steps, delay 0 steps, check yes
Step Temp PotEng Press Pxx Pyy Pzz Pxy Pxz Pyz Lx Ly Lz Volume
33971            0   -5516.3541 -0.072879006  -0.14751186  -0.20638991   0.13526476  0.032653709   -7.6586695   0.34895623    28.350514    28.350514    28.350514    22786.773
Loop time of 1.12056 on 1 procs for 349 steps with 768 atoms

Minimization stats:
  Stopping criterion = force tolerance
  Energy initial, next-to-last, final =
  Force two-norm initial, final = 0.0207058 9.23832e-11
  Force max component initial, final = 0.00168373 9.32165e-12
  Final line search alpha, max atom move = 1 9.32165e-12
  Iterations, force evaluations = 349 698

# Obtain new stress tensor

variable tmp equal pe
variable e1 equal -5516.35407762649
variable tmp equal press
variable p1 equal -6.00272447317499e-05
variable tmp equal pxx
variable pxx1 equal -0.00011592102100527
variable tmp equal pyy
variable pyy1 equal -2.76975429600829e-05
variable tmp equal pzz
variable pzz1 equal -3.64631702298965e-05
variable tmp equal pxy
variable pxy1 equal 3.00603724304147e-10
variable tmp equal pxz
variable pxz1 equal -3.11866145057153
variable tmp equal pyz
variable pyz1 equal -1.31024926748646e-09

# Compute elastic constant from pressure tensor

variable C1pos equal 0.00115920314126735
variable C2pos equal 0.000276980006745972
variable C3pos equal 0.000364637851683902
variable C4pos equal 3.67309282014075e-07
variable C5pos equal 31.1866144359232
variable C6pos equal -2.21248421760869e-07

# Combine positive and negative

variable C15 equal 0.5*(-0.00115918802858948+0.00115920314126735)
variable C25 equal 0.5*(-0.000276957004942575+0.000276980006745972)
variable C35 equal 0.5*(-0.000364633748763313+0.000364637851683902)
variable C45 equal 0.5*(-3.61422964854258e-07+3.67309282014075e-07)
variable C55 equal 0.5*(31.1866146105155+31.1866144359232)
variable C65 equal 0.5*(2.19755385273487e-07+-2.21248421760869e-07)

# Delete dir to make sure it is not reused

variable dir delete

# uxy Perturbation

variable dir equal 6
include displace.mod
# NOTE: This script should not need to be
# modified. See in.elastic for more info.
#
# Find which reference length to use

variable len0 equal 28.3505144567224

# Reset box and simulation parameters

clear
box tilt large
read_restart restart.equil
  triclinic box = (-14.1753 -14.1753 -14.1753) to (14.1753 14.1753 14.1753) with tilt (0 0 0)
  768 atoms
include potential.mod
# NOTE: This script can be modified for different pair styles
# See in.elastic for more info.

# Choose potential
pair_style     rebo
pair_coeff     * * CH.airebo C
Reading potential file CH.airebo with DATE: 2011-10-25

#pair_style     lcbop
#pair_coeff     C.lcbop
#pair_style     tersoff
#pair_coeff     BNC.tersoff

# Setup neighbor style
neighbor 1.0 nsq
neigh_modify once no every 1 delay 0 check yes

# Setup minimization style
min_style	     cg
min_modify	     dmax 0.01 line quadratic

# Setup output
thermo		500
thermo_style custom step temp pe press pxx pyy pzz pxy pxz pyz lx ly lz vol
thermo_modify norm no

# Output
dump            1 all xtc 100 traj.xtc
dump            2 all xyz 2000 relaxed.xyz
#dump            4 all atom 10 dump.atom

# Negative deformation

variable delta equal -1.0e-5*28.3505144567224
variable deltaxy equal -1.0e-5*xy
variable deltaxz equal -1.0e-5*xz
variable deltayz equal -1.0e-5*yz
change_box all xy delta -0.000283505144567224 remap units box
  triclinic box = (-14.1753 -14.1753 -14.1753) to (14.1753 14.1753 14.1753) with tilt (-0.000283505 0 0)

# Relax atoms positions

minimize 0 1e-10 10000000 10000000
  update every 1 steps, delay 0 steps, check yes
Step Temp PotEng Press Pxx Pyy Pzz Pxy Pxz Pyz Lx Ly Lz Volume
33971            0   -5516.3541 -0.072878182  -0.14747428   -0.2063347   0.13517444    7.7256582   0.03432529   0.34896494    28.350514    28.350514    28.350514    22786.773
Loop time of 1.24941 on 1 procs for 349 steps with 768 atoms

Minimization stats:
  Stopping criterion = force tolerance
  Energy initial, next-to-last, final =
  Force two-norm initial, final = 0.020865 9.3203e-11
  Force max component initial, final = 0.00170447 1.08089e-11
  Final line search alpha, max atom move = 1 1.08089e-11
  Iterations, force evaluations = 349 698

# Obtain new stress tensor

variable tmp equal pxx
variable pxx1 equal -8.93357433054267e-05
variable tmp equal pyy
variable pyy1 equal -6.30110392917166e-05
variable tmp equal pzz
variable pzz1 equal -2.77332943550246e-05
variable tmp equal pxy
variable pxy1 equal 3.11866145373323
variable tmp equal pxz
variable pxz1 equal 5.01391961852225e-10
variable tmp equal pyz
variable pyz1 equal -1.05297366481131e-09

# Compute elastic constant from pressure tensor

variable C1neg equal -0.000893350364268915
variable C2neg equal -0.000630114970062309
variable C3neg equal -0.000277339092935183
variable C4neg equal -3.64736525987323e-07
variable C5neg equal 7.48059961378363e-08
variable C6neg equal 31.1866147555747

# Reset box and simulation parameters

clear
box tilt large
read_restart restart.equil
  triclinic box = (-14.1753 -14.1753 -14.1753) to (14.1753 14.1753 14.1753) with tilt (0 0 0)
  768 atoms
include potential.mod
# NOTE: This script can be modified for different pair styles
# See in.elastic for more info.

# Choose potential
pair_style     rebo
pair_coeff     * * CH.airebo C
Reading potential file CH.airebo with DATE: 2011-10-25

#pair_style     lcbop
#pair_coeff     C.lcbop
#pair_style     tersoff
#pair_coeff     BNC.tersoff

# Setup neighbor style
neighbor 1.0 nsq
neigh_modify once no every 1 delay 0 check yes

# Setup minimization style
min_style	     cg
min_modify	     dmax 0.01 line quadratic

# Setup output
thermo		500
thermo_style custom step temp pe press pxx pyy pzz pxy pxz pyz lx ly lz vol
thermo_modify norm no

# Output
dump            1 all xtc 100 traj.xtc
dump            2 all xyz 2000 relaxed.xyz
#dump            4 all atom 10 dump.atom

# Positive deformation

variable delta equal 1.0e-5*28.3505144567224
variable deltaxy equal 1.0e-5*xy
variable deltaxz equal 1.0e-5*xz
variable deltayz equal 1.0e-5*yz
change_box all xy delta 0.000283505144567224 remap units box
  triclinic box = (-14.1753 -14.1753 -14.1753) to (14.1753 14.1753 14.1753) with tilt (0.000283505 0 0)

# Relax atoms positions

minimize 0 1e-10 10000000 10000000
  update every 1 steps, delay 0 steps, check yes
Step Temp PotEng Press Pxx Pyy Pzz Pxy Pxz Pyz Lx Ly Lz Volume
33971            0   -5516.3541 -0.072878243  -0.14750578  -0.20630316   0.13517421   -7.6603139  0.034288414   0.34895213    28.350514    28.350514    28.350514    22786.773
Loop time of 1.25184 on 1 procs for 349 steps with 768 atoms

Minimization stats:
  Stopping criterion = force tolerance
  Energy initial, next-to-last, final =
  Force two-norm initial, final = 0.0207372 9.28018e-11
  Force max component initial, final = 0.00167972 1.15921e-11
  Final line search alpha, max atom move = 1 1.15921e-11
  Iterations, force evaluations = 349 698

# Obtain new stress tensor

variable tmp equal pe
variable e1 equal -5516.35407762648
variable tmp equal press
variable p1 equal -6.00263801312669e-05
variable tmp equal pxx
variable pxx1 equal -8.93341695297695e-05
variable tmp equal pyy
variable pyy1 equal -6.30110688146346e-05
variable tmp equal pzz
variable pzz1 equal -2.77339020493967e-05
variable tmp equal pxy
variable pxy1 equal -3.11866145392532
variable tmp equal pxz
variable pxz1 equal 1.06576797007208e-09
variable tmp equal pyz
variable pyz1 equal -1.09512695853198e-09

# Compute elastic constant from pressure tensor

variable C1pos equal 0.000893334626512342
variable C2pos equal 0.000630115265291489
variable C3pos equal 0.000277345169878904
variable C4pos equal 3.6515805892453e-07
variable C5pos equal -8.04497562200348e-08
variable C6pos equal 31.1866143210108

# Combine positive and negative

variable C16 equal 0.5*(-0.000893350364268915+0.000893334626512342)
variable C26 equal 0.5*(-0.000630114970062309+0.000630115265291489)
variable C36 equal 0.5*(-0.000277339092935183+0.000277345169878904)
variable C46 equal 0.5*(-3.64736525987323e-07+3.6515805892453e-07)
variable C56 equal 0.5*(7.48059961378363e-08+-8.04497562200348e-08)
variable C66 equal 0.5*(31.1866147555747+31.1866143210108)

# Delete dir to make sure it is not reused

variable dir delete

# Output final values

variable C11all equal 25.0636746206385
variable C22all equal 25.0636745983339
variable C33all equal 25.0636745976602

variable C12all equal 0.5*(5.97026313186464+5.97026310589661)
variable C13all equal 0.5*(5.97026314690365+5.97026310224113)
variable C23all equal 0.5*(5.97026312912154+5.97026313860274)

variable C44all equal 31.1866145428403
variable C55all equal 31.1866145232194
variable C66all equal 31.1866145382928

variable C14all equal 0.5*(-3.20192955120086e-08+4.042562707098e-09)
variable C15all equal 0.5*(7.55633893499176e-09+-1.38352016947045e-08)
variable C16all equal 0.5*(-7.86887828648723e-09+2.502396416441e-09)

variable C24all equal 0.5*(-1.93304076369881e-08+-3.77460761583001e-10)
variable C25all equal 0.5*(1.15009016985205e-08+2.6519402822275e-09)
variable C26all equal 0.5*(1.47614589985062e-10+-6.56842252409492e-10)

variable C34all equal 0.5*(-2.45928560500038e-08+-4.057431571879e-09)
variable C35all equal 0.5*(2.05146029449901e-09+-1.88682673050001e-09)
variable C36all equal 0.5*(3.03847186048311e-09+-9.0278360260795e-09)

variable C45all equal 0.5*(2.9431585799085e-09+9.2998069690369e-09)
variable C46all equal 0.5*(2.10766468603507e-10+1.47562727465315e-08)
variable C56all equal 0.5*(-2.82188004109925e-09+-7.46518243691007e-10)

# Average moduli for cubic crystals

variable C11cubic equal (25.0636746206385+25.0636745983339+25.0636745976602)/3.0
variable C12cubic equal (5.97026311888063+5.97026312457239+5.97026313386214)/3.0
variable C44cubic equal (31.1866145428403+31.1866145232194+31.1866145382928)/3.0

variable bulkmodulus equal (25.0636746055442+2*5.97026312577172)/3.0
variable shearmodulus1 equal 31.1866145347842
variable shearmodulus2 equal (25.0636746055442-5.97026312577172)/2.0
variable poissonratio equal 1.0/(1.0+25.0636746055442/5.97026312577172)

# For Stillinger-Weber silicon, the analytical results
# are known to be (E. R. Cowley, 1988):
#               C11 = 151.4 GPa
#               C12 = 76.4 GPa
#               C44 = 56.4 GPa

print "========================================="
=========================================
print "Components of the Elastic Constant Tensor"
Components of the Elastic Constant Tensor
print "========================================="
=========================================

Elastic Constant C11all = 25.0636746206385 GPa
Elastic Constant C22all = 25.0636745983339 GPa
Elastic Constant C33all = 25.0636745976602 GPa

Elastic Constant C12all = 5.97026311888063 GPa
Elastic Constant C13all = 5.97026312457239 GPa
Elastic Constant C23all = 5.97026313386214 GPa

Elastic Constant C44all = 31.1866145428403 GPa
Elastic Constant C55all = 31.1866145232194 GPa
Elastic Constant C66all = 31.1866145382928 GPa

Elastic Constant C14all = -1.39883664024553e-08 GPa
Elastic Constant C15all = -3.13943137985637e-09 GPa
Elastic Constant C16all = -2.68324093502312e-09 GPa

Elastic Constant C24all = -9.85393419928555e-09 GPa
Elastic Constant C25all = 7.076420990374e-09 GPa
Elastic Constant C26all = -2.54613831212215e-10 GPa

Elastic Constant C34all = -1.43251438109414e-08 GPa
Elastic Constant C35all = 8.23167819995e-11 GPa
Elastic Constant C36all = -2.99468208279819e-09 GPa

Elastic Constant C45all = 6.1214827744727e-09 GPa
Elastic Constant C46all = 7.4835196075675e-09 GPa
Elastic Constant C56all = -1.78419914239513e-09 GPa

print "========================================="
=========================================
print "Average properties for a cubic crystal"
Average properties for a cubic crystal
print "========================================="
=========================================

Bulk Modulus = 12.3347336190292 GPa
Shear Modulus 1 = 31.1866145347842 GPa
Shear Modulus 2 = 9.54670573988624 GPa
Poisson Ratio = 0.192378523713644
Deformation size: 1.0e-5

print "Lattice_type	lattice_constant	bulk_modulus	poisson	     c11	     c12         c44	" file elastic_constants.out
Lattice_type	lattice_constant	bulk_modulus	poisson	     c11	     c12         c44
sc    14.0    12.3347336190292     0.192378523713644     25.0636746206385     5.97026311888063     31.1866145428403
